version 3
run qoeSlicingTestingBase_R100_Q35_M100_C100-0-20230221-13:05:10-18652
attr configname qoeSlicingTestingBase_R100_Q35_M100_C100
attr datetime 20230221-13:05:10
attr datetimef 20230221-130510
attr experiment qoeSlicingTestingBase_R100_Q35_M100_C100
attr inifile simulations/omnetpp.ini
attr iterationvars ""
attr iterationvarsd ""
attr iterationvarsf ""
attr measurement ""
attr network baselineTestQoS
attr processid 18652
attr repetition 0
attr replication #0
attr resultdir results
attr runnumber 0
attr seedset 0
config image-path ../inet/images
config description "Configuration for qoeSlicingTestingBase_R100_Q35_M100_C100. All five applications. QoS employed. Guarantee Multiplier: 1.0; Ceil multiplier: 1.0"
config extends liteCbaselineTestTokenQoS_base
config *.configurator.config "xmldoc(\"configs/routing/qoeSlicingTestingBase_R100_Q35_M100_C100Routing.xml\")"
config *.nVID 57
config *.nLVD 26
config *.nFDO 7
config *.nSSH 10
config *.nVIP 40
config *.ncVIP 0
config *.router*.ppp[0].queue.typename HtbQueue
config *.router*.ppp[0].queue.numQueues 140
config *.router*.ppp[0].queue.queue[*].typename DropTailQueue
config *.router*.ppp[0].queue.packetCapacity -1
config *.router*.ppp[0].queue.htbHysterisis false
config *.router*.ppp[0].queue.scheduler.adjustHTBTreeValuesForCorectness false
config *.router*.ppp[0].queue.scheduler.checkHTBTreeValuesForCorectness false
config *.router*.ppp[0].queue.htbTreeConfig "xmldoc(\"configs/htbTree/qoeSlicingTestingBase_R100_Q35_M100_C100HTB.xml\")"
config *.router*.ppp[0].queue.classifier.defaultGateIndex 0
config *.router0.ppp[0].queue.classifier.packetFilters "[expr(ipv4.srcAddress.str() =~ \"10.0.0.0\"),expr(ipv4.srcAddress.str() =~ \"10.0.0.4\"),expr(ipv4.srcAddress.str() =~ \"10.0.0.8\"),expr(ipv4.srcAddress.str() =~ \"10.0.0.12\"),expr(ipv4.srcAddress.str() =~ \"10.0.0.16\"),expr(ipv4.srcAddress.str() =~ \"10.0.0.20\"),expr(ipv4.srcAddress.str() =~ \"10.0.0.24\"),expr(ipv4.srcAddress.str() =~ \"10.0.0.28\"),expr(ipv4.srcAddress.str() =~ \"10.0.0.32\"),expr(ipv4.srcAddress.str() =~ \"10.0.0.36\"),expr(ipv4.srcAddress.str() =~ \"10.0.0.40\"),expr(ipv4.srcAddress.str() =~ \"10.0.0.44\"),expr(ipv4.srcAddress.str() =~ \"10.0.0.48\"),expr(ipv4.srcAddress.str() =~ \"10.0.0.52\"),expr(ipv4.srcAddress.str() =~ \"10.0.0.56\"),expr(ipv4.srcAddress.str() =~ \"10.0.0.60\"),expr(ipv4.srcAddress.str() =~ \"10.0.0.64\"),expr(ipv4.srcAddress.str() =~ \"10.0.0.68\"),expr(ipv4.srcAddress.str() =~ \"10.0.0.72\"),expr(ipv4.srcAddress.str() =~ \"10.0.0.76\"),expr(ipv4.srcAddress.str() =~ \"10.0.0.80\"),expr(ipv4.srcAddress.str() =~ \"10.0.0.84\"),expr(ipv4.srcAddress.str() =~ \"10.0.0.88\"),expr(ipv4.srcAddress.str() =~ \"10.0.0.92\"),expr(ipv4.srcAddress.str() =~ \"10.0.0.96\"),expr(ipv4.srcAddress.str() =~ \"10.0.0.100\"),expr(ipv4.srcAddress.str() =~ \"10.0.0.104\"),expr(ipv4.srcAddress.str() =~ \"10.0.0.108\"),expr(ipv4.srcAddress.str() =~ \"10.0.0.112\"),expr(ipv4.srcAddress.str() =~ \"10.0.0.116\"),expr(ipv4.srcAddress.str() =~ \"10.0.0.120\"),expr(ipv4.srcAddress.str() =~ \"10.0.0.124\"),expr(ipv4.srcAddress.str() =~ \"10.0.0.128\"),expr(ipv4.srcAddress.str() =~ \"10.0.0.132\"),expr(ipv4.srcAddress.str() =~ \"10.0.0.136\"),expr(ipv4.srcAddress.str() =~ \"10.0.0.140\"),expr(ipv4.srcAddress.str() =~ \"10.0.0.144\"),expr(ipv4.srcAddress.str() =~ \"10.0.0.148\"),expr(ipv4.srcAddress.str() =~ \"10.0.0.152\"),expr(ipv4.srcAddress.str() =~ \"10.0.0.156\"),expr(ipv4.srcAddress.str() =~ \"10.0.0.160\"),expr(ipv4.srcAddress.str() =~ \"10.0.0.164\"),expr(ipv4.srcAddress.str() =~ \"10.0.0.168\"),expr(ipv4.srcAddress.str() =~ \"10.0.0.172\"),expr(ipv4.srcAddress.str() =~ \"10.0.0.176\"),expr(ipv4.srcAddress.str() =~ \"10.0.0.180\"),expr(ipv4.srcAddress.str() =~ \"10.0.0.184\"),expr(ipv4.srcAddress.str() =~ \"10.0.0.188\"),expr(ipv4.srcAddress.str() =~ \"10.0.0.192\"),expr(ipv4.srcAddress.str() =~ \"10.0.0.196\"),expr(ipv4.srcAddress.str() =~ \"10.0.0.200\"),expr(ipv4.srcAddress.str() =~ \"10.0.0.204\"),expr(ipv4.srcAddress.str() =~ \"10.0.0.208\"),expr(ipv4.srcAddress.str() =~ \"10.0.0.212\"),expr(ipv4.srcAddress.str() =~ \"10.0.0.216\"),expr(ipv4.srcAddress.str() =~ \"10.0.0.220\"),expr(ipv4.srcAddress.str() =~ \"10.0.0.224\"),expr(ipv4.srcAddress.str() =~ \"10.1.0.0\"),expr(ipv4.srcAddress.str() =~ \"10.1.0.4\"),expr(ipv4.srcAddress.str() =~ \"10.1.0.8\"),expr(ipv4.srcAddress.str() =~ \"10.1.0.12\"),expr(ipv4.srcAddress.str() =~ \"10.1.0.16\"),expr(ipv4.srcAddress.str() =~ \"10.1.0.20\"),expr(ipv4.srcAddress.str() =~ \"10.1.0.24\"),expr(ipv4.srcAddress.str() =~ \"10.1.0.28\"),expr(ipv4.srcAddress.str() =~ \"10.1.0.32\"),expr(ipv4.srcAddress.str() =~ \"10.1.0.36\"),expr(ipv4.srcAddress.str() =~ \"10.1.0.40\"),expr(ipv4.srcAddress.str() =~ \"10.1.0.44\"),expr(ipv4.srcAddress.str() =~ \"10.1.0.48\"),expr(ipv4.srcAddress.str() =~ \"10.1.0.52\"),expr(ipv4.srcAddress.str() =~ \"10.1.0.56\"),expr(ipv4.srcAddress.str() =~ \"10.1.0.60\"),expr(ipv4.srcAddress.str() =~ \"10.1.0.64\"),expr(ipv4.srcAddress.str() =~ \"10.1.0.68\"),expr(ipv4.srcAddress.str() =~ \"10.1.0.72\"),expr(ipv4.srcAddress.str() =~ \"10.1.0.76\"),expr(ipv4.srcAddress.str() =~ \"10.1.0.80\"),expr(ipv4.srcAddress.str() =~ \"10.1.0.84\"),expr(ipv4.srcAddress.str() =~ \"10.1.0.88\"),expr(ipv4.srcAddress.str() =~ \"10.1.0.92\"),expr(ipv4.srcAddress.str() =~ \"10.1.0.96\"),expr(ipv4.srcAddress.str() =~ \"10.1.0.100\"),expr(ipv4.srcAddress.str() =~ \"10.2.0.0\"),expr(ipv4.srcAddress.str() =~ \"10.2.0.4\"),expr(ipv4.srcAddress.str() =~ \"10.2.0.8\"),expr(ipv4.srcAddress.str() =~ \"10.2.0.12\"),expr(ipv4.srcAddress.str() =~ \"10.2.0.16\"),expr(ipv4.srcAddress.str() =~ \"10.2.0.20\"),expr(ipv4.srcAddress.str() =~ \"10.2.0.24\"),expr(ipv4.srcAddress.str() =~ \"10.3.0.0\"),expr(ipv4.srcAddress.str() =~ \"10.3.0.4\"),expr(ipv4.srcAddress.str() =~ \"10.3.0.8\"),expr(ipv4.srcAddress.str() =~ \"10.3.0.12\"),expr(ipv4.srcAddress.str() =~ \"10.3.0.16\"),expr(ipv4.srcAddress.str() =~ \"10.3.0.20\"),expr(ipv4.srcAddress.str() =~ \"10.3.0.24\"),expr(ipv4.srcAddress.str() =~ \"10.3.0.28\"),expr(ipv4.srcAddress.str() =~ \"10.3.0.32\"),expr(ipv4.srcAddress.str() =~ \"10.3.0.36\"),expr(ipv4.srcAddress.str() =~ \"10.3.0.40\"),expr(ipv4.srcAddress.str() =~ \"10.3.0.44\"),expr(ipv4.srcAddress.str() =~ \"10.3.0.48\"),expr(ipv4.srcAddress.str() =~ \"10.3.0.52\"),expr(ipv4.srcAddress.str() =~ \"10.3.0.56\"),expr(ipv4.srcAddress.str() =~ \"10.3.0.60\"),expr(ipv4.srcAddress.str() =~ \"10.3.0.64\"),expr(ipv4.srcAddress.str() =~ \"10.3.0.68\"),expr(ipv4.srcAddress.str() =~ \"10.3.0.72\"),expr(ipv4.srcAddress.str() =~ \"10.3.0.76\"),expr(ipv4.srcAddress.str() =~ \"10.3.0.80\"),expr(ipv4.srcAddress.str() =~ \"10.3.0.84\"),expr(ipv4.srcAddress.str() =~ \"10.3.0.88\"),expr(ipv4.srcAddress.str() =~ \"10.3.0.92\"),expr(ipv4.srcAddress.str() =~ \"10.3.0.96\"),expr(ipv4.srcAddress.str() =~ \"10.3.0.100\"),expr(ipv4.srcAddress.str() =~ \"10.3.0.104\"),expr(ipv4.srcAddress.str() =~ \"10.3.0.108\"),expr(ipv4.srcAddress.str() =~ \"10.3.0.112\"),expr(ipv4.srcAddress.str() =~ \"10.3.0.116\"),expr(ipv4.srcAddress.str() =~ \"10.3.0.120\"),expr(ipv4.srcAddress.str() =~ \"10.3.0.124\"),expr(ipv4.srcAddress.str() =~ \"10.3.0.128\"),expr(ipv4.srcAddress.str() =~ \"10.3.0.132\"),expr(ipv4.srcAddress.str() =~ \"10.3.0.136\"),expr(ipv4.srcAddress.str() =~ \"10.3.0.140\"),expr(ipv4.srcAddress.str() =~ \"10.3.0.144\"),expr(ipv4.srcAddress.str() =~ \"10.3.0.148\"),expr(ipv4.srcAddress.str() =~ \"10.3.0.152\"),expr(ipv4.srcAddress.str() =~ \"10.3.0.156\"),expr(ipv4.srcAddress.str() =~ \"10.4.0.0\"),expr(ipv4.srcAddress.str() =~ \"10.4.0.4\"),expr(ipv4.srcAddress.str() =~ \"10.4.0.8\"),expr(ipv4.srcAddress.str() =~ \"10.4.0.12\"),expr(ipv4.srcAddress.str() =~ \"10.4.0.16\"),expr(ipv4.srcAddress.str() =~ \"10.4.0.20\"),expr(ipv4.srcAddress.str() =~ \"10.4.0.24\"),expr(ipv4.srcAddress.str() =~ \"10.4.0.28\"),expr(ipv4.srcAddress.str() =~ \"10.4.0.32\"),expr(ipv4.srcAddress.str() =~ \"10.4.0.36\")]"
config *.router1.ppp[0].queue.classifier.packetFilters "[expr(ipv4.destAddress.str() =~ \"10.0.0.0\"),expr(ipv4.destAddress.str() =~ \"10.0.0.4\"),expr(ipv4.destAddress.str() =~ \"10.0.0.8\"),expr(ipv4.destAddress.str() =~ \"10.0.0.12\"),expr(ipv4.destAddress.str() =~ \"10.0.0.16\"),expr(ipv4.destAddress.str() =~ \"10.0.0.20\"),expr(ipv4.destAddress.str() =~ \"10.0.0.24\"),expr(ipv4.destAddress.str() =~ \"10.0.0.28\"),expr(ipv4.destAddress.str() =~ \"10.0.0.32\"),expr(ipv4.destAddress.str() =~ \"10.0.0.36\"),expr(ipv4.destAddress.str() =~ \"10.0.0.40\"),expr(ipv4.destAddress.str() =~ \"10.0.0.44\"),expr(ipv4.destAddress.str() =~ \"10.0.0.48\"),expr(ipv4.destAddress.str() =~ \"10.0.0.52\"),expr(ipv4.destAddress.str() =~ \"10.0.0.56\"),expr(ipv4.destAddress.str() =~ \"10.0.0.60\"),expr(ipv4.destAddress.str() =~ \"10.0.0.64\"),expr(ipv4.destAddress.str() =~ \"10.0.0.68\"),expr(ipv4.destAddress.str() =~ \"10.0.0.72\"),expr(ipv4.destAddress.str() =~ \"10.0.0.76\"),expr(ipv4.destAddress.str() =~ \"10.0.0.80\"),expr(ipv4.destAddress.str() =~ \"10.0.0.84\"),expr(ipv4.destAddress.str() =~ \"10.0.0.88\"),expr(ipv4.destAddress.str() =~ \"10.0.0.92\"),expr(ipv4.destAddress.str() =~ \"10.0.0.96\"),expr(ipv4.destAddress.str() =~ \"10.0.0.100\"),expr(ipv4.destAddress.str() =~ \"10.0.0.104\"),expr(ipv4.destAddress.str() =~ \"10.0.0.108\"),expr(ipv4.destAddress.str() =~ \"10.0.0.112\"),expr(ipv4.destAddress.str() =~ \"10.0.0.116\"),expr(ipv4.destAddress.str() =~ \"10.0.0.120\"),expr(ipv4.destAddress.str() =~ \"10.0.0.124\"),expr(ipv4.destAddress.str() =~ \"10.0.0.128\"),expr(ipv4.destAddress.str() =~ \"10.0.0.132\"),expr(ipv4.destAddress.str() =~ \"10.0.0.136\"),expr(ipv4.destAddress.str() =~ \"10.0.0.140\"),expr(ipv4.destAddress.str() =~ \"10.0.0.144\"),expr(ipv4.destAddress.str() =~ \"10.0.0.148\"),expr(ipv4.destAddress.str() =~ \"10.0.0.152\"),expr(ipv4.destAddress.str() =~ \"10.0.0.156\"),expr(ipv4.destAddress.str() =~ \"10.0.0.160\"),expr(ipv4.destAddress.str() =~ \"10.0.0.164\"),expr(ipv4.destAddress.str() =~ \"10.0.0.168\"),expr(ipv4.destAddress.str() =~ \"10.0.0.172\"),expr(ipv4.destAddress.str() =~ \"10.0.0.176\"),expr(ipv4.destAddress.str() =~ \"10.0.0.180\"),expr(ipv4.destAddress.str() =~ \"10.0.0.184\"),expr(ipv4.destAddress.str() =~ \"10.0.0.188\"),expr(ipv4.destAddress.str() =~ \"10.0.0.192\"),expr(ipv4.destAddress.str() =~ \"10.0.0.196\"),expr(ipv4.destAddress.str() =~ \"10.0.0.200\"),expr(ipv4.destAddress.str() =~ \"10.0.0.204\"),expr(ipv4.destAddress.str() =~ \"10.0.0.208\"),expr(ipv4.destAddress.str() =~ \"10.0.0.212\"),expr(ipv4.destAddress.str() =~ \"10.0.0.216\"),expr(ipv4.destAddress.str() =~ \"10.0.0.220\"),expr(ipv4.destAddress.str() =~ \"10.0.0.224\"),expr(ipv4.destAddress.str() =~ \"10.1.0.0\"),expr(ipv4.destAddress.str() =~ \"10.1.0.4\"),expr(ipv4.destAddress.str() =~ \"10.1.0.8\"),expr(ipv4.destAddress.str() =~ \"10.1.0.12\"),expr(ipv4.destAddress.str() =~ \"10.1.0.16\"),expr(ipv4.destAddress.str() =~ \"10.1.0.20\"),expr(ipv4.destAddress.str() =~ \"10.1.0.24\"),expr(ipv4.destAddress.str() =~ \"10.1.0.28\"),expr(ipv4.destAddress.str() =~ \"10.1.0.32\"),expr(ipv4.destAddress.str() =~ \"10.1.0.36\"),expr(ipv4.destAddress.str() =~ \"10.1.0.40\"),expr(ipv4.destAddress.str() =~ \"10.1.0.44\"),expr(ipv4.destAddress.str() =~ \"10.1.0.48\"),expr(ipv4.destAddress.str() =~ \"10.1.0.52\"),expr(ipv4.destAddress.str() =~ \"10.1.0.56\"),expr(ipv4.destAddress.str() =~ \"10.1.0.60\"),expr(ipv4.destAddress.str() =~ \"10.1.0.64\"),expr(ipv4.destAddress.str() =~ \"10.1.0.68\"),expr(ipv4.destAddress.str() =~ \"10.1.0.72\"),expr(ipv4.destAddress.str() =~ \"10.1.0.76\"),expr(ipv4.destAddress.str() =~ \"10.1.0.80\"),expr(ipv4.destAddress.str() =~ \"10.1.0.84\"),expr(ipv4.destAddress.str() =~ \"10.1.0.88\"),expr(ipv4.destAddress.str() =~ \"10.1.0.92\"),expr(ipv4.destAddress.str() =~ \"10.1.0.96\"),expr(ipv4.destAddress.str() =~ \"10.1.0.100\"),expr(ipv4.destAddress.str() =~ \"10.2.0.0\"),expr(ipv4.destAddress.str() =~ \"10.2.0.4\"),expr(ipv4.destAddress.str() =~ \"10.2.0.8\"),expr(ipv4.destAddress.str() =~ \"10.2.0.12\"),expr(ipv4.destAddress.str() =~ \"10.2.0.16\"),expr(ipv4.destAddress.str() =~ \"10.2.0.20\"),expr(ipv4.destAddress.str() =~ \"10.2.0.24\"),expr(ipv4.destAddress.str() =~ \"10.3.0.0\"),expr(ipv4.destAddress.str() =~ \"10.3.0.4\"),expr(ipv4.destAddress.str() =~ \"10.3.0.8\"),expr(ipv4.destAddress.str() =~ \"10.3.0.12\"),expr(ipv4.destAddress.str() =~ \"10.3.0.16\"),expr(ipv4.destAddress.str() =~ \"10.3.0.20\"),expr(ipv4.destAddress.str() =~ \"10.3.0.24\"),expr(ipv4.destAddress.str() =~ \"10.3.0.28\"),expr(ipv4.destAddress.str() =~ \"10.3.0.32\"),expr(ipv4.destAddress.str() =~ \"10.3.0.36\"),expr(ipv4.destAddress.str() =~ \"10.3.0.40\"),expr(ipv4.destAddress.str() =~ \"10.3.0.44\"),expr(ipv4.destAddress.str() =~ \"10.3.0.48\"),expr(ipv4.destAddress.str() =~ \"10.3.0.52\"),expr(ipv4.destAddress.str() =~ \"10.3.0.56\"),expr(ipv4.destAddress.str() =~ \"10.3.0.60\"),expr(ipv4.destAddress.str() =~ \"10.3.0.64\"),expr(ipv4.destAddress.str() =~ \"10.3.0.68\"),expr(ipv4.destAddress.str() =~ \"10.3.0.72\"),expr(ipv4.destAddress.str() =~ \"10.3.0.76\"),expr(ipv4.destAddress.str() =~ \"10.3.0.80\"),expr(ipv4.destAddress.str() =~ \"10.3.0.84\"),expr(ipv4.destAddress.str() =~ \"10.3.0.88\"),expr(ipv4.destAddress.str() =~ \"10.3.0.92\"),expr(ipv4.destAddress.str() =~ \"10.3.0.96\"),expr(ipv4.destAddress.str() =~ \"10.3.0.100\"),expr(ipv4.destAddress.str() =~ \"10.3.0.104\"),expr(ipv4.destAddress.str() =~ \"10.3.0.108\"),expr(ipv4.destAddress.str() =~ \"10.3.0.112\"),expr(ipv4.destAddress.str() =~ \"10.3.0.116\"),expr(ipv4.destAddress.str() =~ \"10.3.0.120\"),expr(ipv4.destAddress.str() =~ \"10.3.0.124\"),expr(ipv4.destAddress.str() =~ \"10.3.0.128\"),expr(ipv4.destAddress.str() =~ \"10.3.0.132\"),expr(ipv4.destAddress.str() =~ \"10.3.0.136\"),expr(ipv4.destAddress.str() =~ \"10.3.0.140\"),expr(ipv4.destAddress.str() =~ \"10.3.0.144\"),expr(ipv4.destAddress.str() =~ \"10.3.0.148\"),expr(ipv4.destAddress.str() =~ \"10.3.0.152\"),expr(ipv4.destAddress.str() =~ \"10.3.0.156\"),expr(ipv4.destAddress.str() =~ \"10.4.0.0\"),expr(ipv4.destAddress.str() =~ \"10.4.0.4\"),expr(ipv4.destAddress.str() =~ \"10.4.0.8\"),expr(ipv4.destAddress.str() =~ \"10.4.0.12\"),expr(ipv4.destAddress.str() =~ \"10.4.0.16\"),expr(ipv4.destAddress.str() =~ \"10.4.0.20\"),expr(ipv4.destAddress.str() =~ \"10.4.0.24\"),expr(ipv4.destAddress.str() =~ \"10.4.0.28\"),expr(ipv4.destAddress.str() =~ \"10.4.0.32\"),expr(ipv4.destAddress.str() =~ \"10.4.0.36\")]"
config **.connFIX0.datarate 100000000bps
config **.connFIX0.delay 40ms
config description "All five applications - base configuration without any resource allocation"
config network baselineTestQoS
config sim-time-limit 280s
config output-vector-file results/qoeSlicingTestingBase_R100_Q35_M100_C100/qoeSlicingTestingBase_R100_Q35_M100_C100-0.vec
config output-scalar-file results/qoeSlicingTestingBase_R100_Q35_M100_C100/qoeSlicingTestingBase_R100_Q35_M100_C100-0.sca
config **.crcMode "\"computed\""
config *.host*.numApps 1
config *.hostFDO[*].hasTcp true
config *.hostFDO[*].app[0].typename improved5gns.apps.TcpFileDownloadApp
config *.hostFDO[*].app[0].localAddress "\"\""
config *.hostFDO[*].app[0].localPort -1
config *.hostFDO[*].app[0].connectAddress "\"serverFDO\""
config *.hostFDO[*].app[0].connectPort 1042
config *.hostFDO[*].app[0].startTime uniform(0.01s,1s)
config *.hostFDO[*].app[0].stopTime -1s
config *.hostFDO[*].app[0].numRequestsPerSession 1
config *.hostFDO[*].app[0].requestLength 800B
config *.hostFDO[*].app[0].replyLength 10000KiB
config *.hostFDO[*].app[0].thinkTime 0.01s
config *.hostFDO[*].app[0].idleInterval 1s
config *.hostFDO[*].app[0].reconnectInterval 1s
config *.hostFDO[*].app[0].stopOperationExtraTime -1s
config *.hostFDO[*].app[0].stopOperationTimeout 2s
config *.serverFDO.hasTcp true
config *.serverFDO.numApps 1
config *.serverFDO.app[0].typename TcpGenericServerApp
config *.serverFDO.app[0].localAddress "\"\""
config *.serverFDO.app[0].localPort 1042
config *.serverFDO.app[0].replyDelay 0s
config *.serverFDO.app[0].stopOperationExtraTime -1s
config *.serverFDO.app[0].stopOperationTimeout 2s
config **.hostVID[*].hasTcp true
config **.hostVID[*].app[0].typename improved5gns.apps.TCPVideoStreamCliAppV2lite
config **.hostVID[*].app[0].localAddress "\"\""
config **.hostVID[*].app[0].localPort -1
config **.hostVID[*].app[0].connectAddress "\"serverVID\""
config **.hostVID[*].app[0].connectPort 1042
config **.hostVID[*].app[0].dataTransferMode "\"object\""
config **.hostVID[*].app[0].startTime uniform(0.01s,1s)
config **.hostVID[*].app[0].stopTime -1s
config **.hostVID[*].app[0].idleInterval 1s
config **.hostVID[*].app[0].requestLength 200B
config **.hostVID[*].app[0].reconnectInterval 1s
config **.hostVID[*].app[0].numRequestsPerSession 1
config **.hostVID[*].app[0].thinkTime 1s
config **.hostVID[*].app[0].video_resolution "\"360 480 720 1080\""
config **.hostVID[*].app[0].manifest_size 100000
config **.hostVID[*].app[0].video_buffer_max_length 30s
config **.hostVID[*].app[0].video_duration int(uniform(120s,200s))
config **.hostVID[*].app[0].segment_length 5s
config **.hostVID[*].app[0].useFlexibleBitrate "\"flexible\""
config *.serverVID.hasTcp true
config *.serverVID.numApps 1
config *.serverVID.app[0].typename TcpGenericServerApp
config *.serverVID.app[0].localAddress "\"\""
config *.serverVID.app[0].localPort 1042
config *.serverVID.app[0].replyDelay 0s
config *.serverVID.app[0].stopOperationExtraTime -1s
config *.serverVID.app[0].stopOperationTimeout 2s
config **.hostLVD[*].hasTcp true
config **.hostLVD[*].app[0].typename improved5gns.apps.TCPLiveVideoStreamCliAppLite
config **.hostLVD[*].app[0].localAddress "\"\""
config **.hostLVD[*].app[0].localPort -1
config **.hostLVD[*].app[0].connectAddress "\"serverLVD\""
config **.hostLVD[*].app[0].connectPort 1043
config **.hostLVD[*].app[0].dataTransferMode "\"object\""
config **.hostLVD[*].app[0].startTime uniform(0.01s,1s)
config **.hostLVD[*].app[0].stopTime -1s
config **.hostLVD[*].app[0].idleInterval 1s
config **.hostLVD[*].app[0].requestLength 200B
config **.hostLVD[*].app[0].reconnectInterval 1s
config **.hostLVD[*].app[0].numRequestsPerSession 1
config **.hostLVD[*].app[0].thinkTime 1s
config **.hostLVD[*].app[0].video_resolution "\"240 360 480 720 1080\""
config **.hostLVD[*].app[0].manifest_size 100000
config **.hostLVD[*].app[0].video_buffer_max_length 6s
config **.hostLVD[*].app[0].video_duration int(uniform(40s,70s))
config **.hostLVD[*].app[0].segment_length 1s
config **.hostLVD[*].app[0].useFlexibleBitrate "\"flexible\""
config **.hostLVD[*].app[0].video_type "\"live\""
config **.hostLVD[*].app[0].delay_threshold 4
config **.hostLVD[*].app[0].speedup_rate 1.05
config *.serverLVD.hasTcp true
config *.serverLVD.numApps 1
config *.serverLVD.app[0].typename TcpGenericServerApp
config *.serverLVD.app[0].localAddress "\"\""
config *.serverLVD.app[0].localPort 1043
config *.serverLVD.app[0].replyDelay 0s
config *.serverLVD.app[0].stopOperationExtraTime -1s
config *.serverLVD.app[0].stopOperationTimeout 2s
config **.hostSSH[*].hasTcp true
config **.hostSSH[*].app[0].typename improved5gns.apps.TcpSimpleSshAppV2lite
config **.hostSSH[*].app[0].localAddress "\"\""
config **.hostSSH[*].app[0].localPort -1
config **.hostSSH[*].app[0].connectAddress "\"serverSSH\""
config **.hostSSH[*].app[0].connectPort 22
config **.hostSSH[*].app[0].startTime uniform(0.01s,1s)
config **.hostSSH[*].app[0].stopTime -1s
config **.hostSSH[*].app[0].numCommands 1
config **.hostSSH[*].app[0].commandLength 10B
config **.hostSSH[*].app[0].keyPressDelay 0.05s
config **.hostSSH[*].app[0].commandOutputLength 500B
config **.hostSSH[*].app[0].thinkTime 1s
config **.hostSSH[*].app[0].idleInterval 1s
config **.hostSSH[*].app[0].reconnectInterval 1s
config **.hostSSH[*].app[0].stopOperationExtraTime -1s
config **.hostSSH[*].app[0].stopOperationTimeout 2s
config *.serverSSH.hasTcp true
config *.serverSSH.numApps 1
config *.serverSSH.app[*].typename TcpGenericServerApp
config *.serverSSH.app[*].localAddress "\"\""
config *.serverSSH.app[*].localPort 22
config *.serverSSH.app[*].replyDelay 0s
config *.serverSSH.app[*].stopOperationExtraTime -1s
config *.serverSSH.app[*].stopOperationTimeout 2s
config **.hostVIP[*].hasUdp true
config **.hostVIP[*].app[0].typename SimpleVoipReceiver
config **.hostVIP[*].app[0].localPort 2000
config **.hostVIP[*].app[0].emodelIe 5
config **.hostVIP[*].app[0].emodelBpl 10
config **.hostVIP[*].app[0].emodelA 5
config **.hostVIP[*].app[0].emodelRo 93.2
config **.hostVIP[*].app[0].playoutDelay 20ms
config **.hostVIP[*].app[0].adaptivePlayoutDelay false
config **.hostVIP[*].app[0].bufferSpace 20
config **.hostVIP[*].app[0].mosSpareTime 1s
config **.serverVIP.hasUdp true
config **.serverVIP.numApps parent.nVIP
config **.serverVIP.app[*].typename SimpleVoipSender
config **.serverVIP.app[*].localPort -1
config **.serverVIP.app[*].destPort 2000
config **.serverVIP.app[*].destAddress "\"hostVIP[\" + string(index) + \"]\""
config **.serverVIP.app[*].talkPacketSize 40B
config **.serverVIP.app[*].talkspurtDuration "weibull(1.423s, 0.824s)"
config **.serverVIP.app[*].silenceDuration "weibull(0.899s, 1.089s)"
config **.serverVIP.app[*].packetizationInterval 20ms
config **.serverVIP.app[*].startTime uniform(0.01s,1s)
config **.serverVIP.app[*].stopTime -1s
config **.hostcVIP[*].hasUdp true
config **.hostcVIP[*].app[0].typename improved5gns.apps.SimpleVoipReceiverCustom
config **.hostcVIP[*].app[0].localPort 2000
config **.hostcVIP[*].app[0].emodelIe 5
config **.hostcVIP[*].app[0].emodelBpl 10
config **.hostcVIP[*].app[0].emodelA 5
config **.hostcVIP[*].app[0].emodelRo 93.2
config **.hostcVIP[*].app[0].playoutDelay 20ms
config **.hostcVIP[*].app[0].adaptivePlayoutDelay false
config **.hostcVIP[*].app[0].bufferSpace 20
config **.hostcVIP[*].app[0].mosSpareTime 1s
config **.servercVIP.hasUdp true
config **.servercVIP.numApps parent.ncVIP
config **.servercVIP.app[*].typename improved5gns.apps.SimpleVoipSenderCustom
config **.servercVIP.app[*].localPort -1
config **.servercVIP.app[*].destPort 2000
config **.servercVIP.app[*].destAddress "\"hostcVIP[\" + string(index) + \"]\""
config **.servercVIP.app[*].talkPacketSize 40B
config **.servercVIP.app[*].talkspurtDuration "weibull(1.423s, 0.824s)"
config **.servercVIP.app[*].silenceDuration "weibull(0.899s, 1.089s)"
config **.servercVIP.app[*].packetizationInterval 2ms
config **.servercVIP.app[*].startTime uniform(0.01s,1s)
config **.servercVIP.app[*].stopTime -1s
config sim-time-limit 250s
config num-rngs 1
config seed-0-mt 5
config output-scalar-file-append false
config record-eventlog false
config *.visualizer.*.interfaceTableVisualizer.displayInterfaceTables true
config **.tcp.typename Tcp
config **.udp.typename Udp
config **.packetCapacity 500
config **.tcp.advertisedWindow 65535
config **.tcp.delayedAcksEnabled false
config **.tcp.nagleEnabled true
config **.tcp.limitedTransmitEnabled false
config **.tcp.increasedIWEnabled false
config **.tcp.sackSupport false
config **.tcp.windowScalingSupport false
config **.tcp.timestampSupport false
config **.tcp.mss 1452
config **.tcp.tcpAlgorithmClass "\"TcpReno\""
config **.tcp.*.*.vector-recording true
config **.tcp.*.rtt.result-recording-modes +vector
config **.tcp.*.*.result-recording-modes -vector
config **.host*.app*.*.vector-recording true
config **.ppp.*xPk*.vector-recording true
config **.vector-recording false

vector 0 baselineTestQoS.hostVID[0].app[0] numActiveSessions:vector ETV
attr interpolationmode sample-hold
attr recordingmode vector
attr source sum(connect)
attr title "number of active sessions"
vector 1 baselineTestQoS.hostVID[1].app[0] numActiveSessions:vector ETV
attr interpolationmode sample-hold
attr recordingmode vector
attr source sum(connect)
attr title "number of active sessions"
vector 2 baselineTestQoS.hostVID[2].app[0] numActiveSessions:vector ETV
attr interpolationmode sample-hold
attr recordingmode vector
attr source sum(connect)
attr title "number of active sessions"
vector 3 baselineTestQoS.hostVID[3].app[0] numActiveSessions:vector ETV
attr interpolationmode sample-hold
attr recordingmode vector
attr source sum(connect)
attr title "number of active sessions"
vector 4 baselineTestQoS.hostVID[4].app[0] numActiveSessions:vector ETV
attr interpolationmode sample-hold
attr recordingmode vector
attr source sum(connect)
attr title "number of active sessions"
vector 5 baselineTestQoS.hostVID[5].app[0] numActiveSessions:vector ETV
attr interpolationmode sample-hold
attr recordingmode vector
attr source sum(connect)
attr title "number of active sessions"
vector 6 baselineTestQoS.hostVID[6].app[0] numActiveSessions:vector ETV
attr interpolationmode sample-hold
attr recordingmode vector
attr source sum(connect)
attr title "number of active sessions"
vector 7 baselineTestQoS.hostVID[7].app[0] numActiveSessions:vector ETV
attr interpolationmode sample-hold
attr recordingmode vector
attr source sum(connect)
attr title "number of active sessions"
vector 8 baselineTestQoS.hostVID[8].app[0] numActiveSessions:vector ETV
attr interpolationmode sample-hold
attr recordingmode vector
attr source sum(connect)
attr title "number of active sessions"
vector 9 baselineTestQoS.hostVID[9].app[0] numActiveSessions:vector ETV
attr interpolationmode sample-hold
attr recordingmode vector
attr source sum(connect)
attr title "number of active sessions"
vector 10 baselineTestQoS.hostVID[10].app[0] numActiveSessions:vector ETV
attr interpolationmode sample-hold
attr recordingmode vector
attr source sum(connect)
attr title "number of active sessions"
vector 11 baselineTestQoS.hostVID[11].app[0] numActiveSessions:vector ETV
attr interpolationmode sample-hold
attr recordingmode vector
attr source sum(connect)
attr title "number of active sessions"
vector 12 baselineTestQoS.hostVID[12].app[0] numActiveSessions:vector ETV
attr interpolationmode sample-hold
attr recordingmode vector
attr source sum(connect)
attr title "number of active sessions"
vector 13 baselineTestQoS.hostVID[13].app[0] numActiveSessions:vector ETV
attr interpolationmode sample-hold
attr recordingmode vector
attr source sum(connect)
attr title "number of active sessions"
vector 14 baselineTestQoS.hostVID[14].app[0] numActiveSessions:vector ETV
attr interpolationmode sample-hold
attr recordingmode vector
attr source sum(connect)
attr title "number of active sessions"
vector 15 baselineTestQoS.hostVID[15].app[0] numActiveSessions:vector ETV
attr interpolationmode sample-hold
attr recordingmode vector
attr source sum(connect)
attr title "number of active sessions"
vector 16 baselineTestQoS.hostVID[16].app[0] numActiveSessions:vector ETV
attr interpolationmode sample-hold
attr recordingmode vector
attr source sum(connect)
attr title "number of active sessions"
vector 17 baselineTestQoS.hostVID[17].app[0] numActiveSessions:vector ETV
attr interpolationmode sample-hold
attr recordingmode vector
attr source sum(connect)
attr title "number of active sessions"
vector 18 baselineTestQoS.hostVID[18].app[0] numActiveSessions:vector ETV
attr interpolationmode sample-hold
attr recordingmode vector
attr source sum(connect)
attr title "number of active sessions"
vector 19 baselineTestQoS.hostVID[19].app[0] numActiveSessions:vector ETV
attr interpolationmode sample-hold
attr recordingmode vector
attr source sum(connect)
attr title "number of active sessions"
vector 20 baselineTestQoS.hostVID[20].app[0] numActiveSessions:vector ETV
attr interpolationmode sample-hold
attr recordingmode vector
attr source sum(connect)
attr title "number of active sessions"
vector 21 baselineTestQoS.hostVID[21].app[0] numActiveSessions:vector ETV
attr interpolationmode sample-hold
attr recordingmode vector
attr source sum(connect)
attr title "number of active sessions"
vector 22 baselineTestQoS.hostVID[22].app[0] numActiveSessions:vector ETV
attr interpolationmode sample-hold
attr recordingmode vector
attr source sum(connect)
attr title "number of active sessions"
vector 23 baselineTestQoS.hostVID[23].app[0] numActiveSessions:vector ETV
attr interpolationmode sample-hold
attr recordingmode vector
attr source sum(connect)
attr title "number of active sessions"
vector 24 baselineTestQoS.hostVID[24].app[0] numActiveSessions:vector ETV
attr interpolationmode sample-hold
attr recordingmode vector
attr source sum(connect)
attr title "number of active sessions"
vector 25 baselineTestQoS.hostVID[25].app[0] numActiveSessions:vector ETV
attr interpolationmode sample-hold
attr recordingmode vector
attr source sum(connect)
attr title "number of active sessions"
vector 26 baselineTestQoS.hostVID[26].app[0] numActiveSessions:vector ETV
attr interpolationmode sample-hold
attr recordingmode vector
attr source sum(connect)
attr title "number of active sessions"
vector 27 baselineTestQoS.hostVID[27].app[0] numActiveSessions:vector ETV
attr interpolationmode sample-hold
attr recordingmode vector
attr source sum(connect)
attr title "number of active sessions"
vector 28 baselineTestQoS.hostVID[28].app[0] numActiveSessions:vector ETV
attr interpolationmode sample-hold
attr recordingmode vector
attr source sum(connect)
attr title "number of active sessions"
vector 29 baselineTestQoS.hostVID[29].app[0] numActiveSessions:vector ETV
attr interpolationmode sample-hold
attr recordingmode vector
attr source sum(connect)
attr title "number of active sessions"
vector 30 baselineTestQoS.hostVID[30].app[0] numActiveSessions:vector ETV
attr interpolationmode sample-hold
attr recordingmode vector
attr source sum(connect)
attr title "number of active sessions"
vector 31 baselineTestQoS.hostVID[31].app[0] numActiveSessions:vector ETV
attr interpolationmode sample-hold
attr recordingmode vector
attr source sum(connect)
attr title "number of active sessions"
vector 32 baselineTestQoS.hostVID[32].app[0] numActiveSessions:vector ETV
attr interpolationmode sample-hold
attr recordingmode vector
attr source sum(connect)
attr title "number of active sessions"
vector 33 baselineTestQoS.hostVID[33].app[0] numActiveSessions:vector ETV
attr interpolationmode sample-hold
attr recordingmode vector
attr source sum(connect)
attr title "number of active sessions"
vector 34 baselineTestQoS.hostVID[34].app[0] numActiveSessions:vector ETV
attr interpolationmode sample-hold
attr recordingmode vector
attr source sum(connect)
attr title "number of active sessions"
vector 35 baselineTestQoS.hostVID[35].app[0] numActiveSessions:vector ETV
attr interpolationmode sample-hold
attr recordingmode vector
attr source sum(connect)
attr title "number of active sessions"
vector 36 baselineTestQoS.hostVID[36].app[0] numActiveSessions:vector ETV
attr interpolationmode sample-hold
attr recordingmode vector
attr source sum(connect)
attr title "number of active sessions"
vector 37 baselineTestQoS.hostVID[37].app[0] numActiveSessions:vector ETV
attr interpolationmode sample-hold
attr recordingmode vector
attr source sum(connect)
attr title "number of active sessions"
vector 38 baselineTestQoS.hostVID[38].app[0] numActiveSessions:vector ETV
attr interpolationmode sample-hold
attr recordingmode vector
attr source sum(connect)
attr title "number of active sessions"
vector 39 baselineTestQoS.hostVID[39].app[0] numActiveSessions:vector ETV
attr interpolationmode sample-hold
attr recordingmode vector
attr source sum(connect)
attr title "number of active sessions"
vector 40 baselineTestQoS.hostVID[40].app[0] numActiveSessions:vector ETV
attr interpolationmode sample-hold
attr recordingmode vector
attr source sum(connect)
attr title "number of active sessions"
vector 41 baselineTestQoS.hostVID[41].app[0] numActiveSessions:vector ETV
attr interpolationmode sample-hold
attr recordingmode vector
attr source sum(connect)
attr title "number of active sessions"
vector 42 baselineTestQoS.hostVID[42].app[0] numActiveSessions:vector ETV
attr interpolationmode sample-hold
attr recordingmode vector
attr source sum(connect)
attr title "number of active sessions"
vector 43 baselineTestQoS.hostVID[43].app[0] numActiveSessions:vector ETV
attr interpolationmode sample-hold
attr recordingmode vector
attr source sum(connect)
attr title "number of active sessions"
vector 44 baselineTestQoS.hostVID[44].app[0] numActiveSessions:vector ETV
attr interpolationmode sample-hold
attr recordingmode vector
attr source sum(connect)
attr title "number of active sessions"
vector 45 baselineTestQoS.hostVID[45].app[0] numActiveSessions:vector ETV
attr interpolationmode sample-hold
attr recordingmode vector
attr source sum(connect)
attr title "number of active sessions"
vector 46 baselineTestQoS.hostVID[46].app[0] numActiveSessions:vector ETV
attr interpolationmode sample-hold
attr recordingmode vector
attr source sum(connect)
attr title "number of active sessions"
vector 47 baselineTestQoS.hostVID[47].app[0] numActiveSessions:vector ETV
attr interpolationmode sample-hold
attr recordingmode vector
attr source sum(connect)
attr title "number of active sessions"
vector 48 baselineTestQoS.hostVID[48].app[0] numActiveSessions:vector ETV
attr interpolationmode sample-hold
attr recordingmode vector
attr source sum(connect)
attr title "number of active sessions"
vector 49 baselineTestQoS.hostVID[49].app[0] numActiveSessions:vector ETV
attr interpolationmode sample-hold
attr recordingmode vector
attr source sum(connect)
attr title "number of active sessions"
vector 50 baselineTestQoS.hostVID[50].app[0] numActiveSessions:vector ETV
attr interpolationmode sample-hold
attr recordingmode vector
attr source sum(connect)
attr title "number of active sessions"
vector 51 baselineTestQoS.hostVID[51].app[0] numActiveSessions:vector ETV
attr interpolationmode sample-hold
attr recordingmode vector
attr source sum(connect)
attr title "number of active sessions"
vector 52 baselineTestQoS.hostVID[52].app[0] numActiveSessions:vector ETV
attr interpolationmode sample-hold
attr recordingmode vector
attr source sum(connect)
attr title "number of active sessions"
vector 53 baselineTestQoS.hostVID[53].app[0] numActiveSessions:vector ETV
attr interpolationmode sample-hold
attr recordingmode vector
attr source sum(connect)
attr title "number of active sessions"
vector 54 baselineTestQoS.hostVID[54].app[0] numActiveSessions:vector ETV
attr interpolationmode sample-hold
attr recordingmode vector
attr source sum(connect)
attr title "number of active sessions"
vector 55 baselineTestQoS.hostVID[55].app[0] numActiveSessions:vector ETV
attr interpolationmode sample-hold
attr recordingmode vector
attr source sum(connect)
attr title "number of active sessions"
vector 56 baselineTestQoS.hostVID[56].app[0] numActiveSessions:vector ETV
attr interpolationmode sample-hold
attr recordingmode vector
attr source sum(connect)
attr title "number of active sessions"
vector 57 baselineTestQoS.hostLVD[0].app[0] numActiveSessions:vector ETV
attr interpolationmode sample-hold
attr recordingmode vector
attr source sum(connect)
attr title "number of active sessions"
vector 58 baselineTestQoS.hostLVD[1].app[0] numActiveSessions:vector ETV
attr interpolationmode sample-hold
attr recordingmode vector
attr source sum(connect)
attr title "number of active sessions"
vector 59 baselineTestQoS.hostLVD[2].app[0] numActiveSessions:vector ETV
attr interpolationmode sample-hold
attr recordingmode vector
attr source sum(connect)
attr title "number of active sessions"
vector 60 baselineTestQoS.hostLVD[3].app[0] numActiveSessions:vector ETV
attr interpolationmode sample-hold
attr recordingmode vector
attr source sum(connect)
attr title "number of active sessions"
vector 61 baselineTestQoS.hostLVD[4].app[0] numActiveSessions:vector ETV
attr interpolationmode sample-hold
attr recordingmode vector
attr source sum(connect)
attr title "number of active sessions"
vector 62 baselineTestQoS.hostLVD[5].app[0] numActiveSessions:vector ETV
attr interpolationmode sample-hold
attr recordingmode vector
attr source sum(connect)
attr title "number of active sessions"
vector 63 baselineTestQoS.hostLVD[6].app[0] numActiveSessions:vector ETV
attr interpolationmode sample-hold
attr recordingmode vector
attr source sum(connect)
attr title "number of active sessions"
vector 64 baselineTestQoS.hostLVD[7].app[0] numActiveSessions:vector ETV
attr interpolationmode sample-hold
attr recordingmode vector
attr source sum(connect)
attr title "number of active sessions"
vector 65 baselineTestQoS.hostLVD[8].app[0] numActiveSessions:vector ETV
attr interpolationmode sample-hold
attr recordingmode vector
attr source sum(connect)
attr title "number of active sessions"
vector 66 baselineTestQoS.hostLVD[9].app[0] numActiveSessions:vector ETV
attr interpolationmode sample-hold
attr recordingmode vector
attr source sum(connect)
attr title "number of active sessions"
vector 67 baselineTestQoS.hostLVD[10].app[0] numActiveSessions:vector ETV
attr interpolationmode sample-hold
attr recordingmode vector
attr source sum(connect)
attr title "number of active sessions"
vector 68 baselineTestQoS.hostLVD[11].app[0] numActiveSessions:vector ETV
attr interpolationmode sample-hold
attr recordingmode vector
attr source sum(connect)
attr title "number of active sessions"
vector 69 baselineTestQoS.hostLVD[12].app[0] numActiveSessions:vector ETV
attr interpolationmode sample-hold
attr recordingmode vector
attr source sum(connect)
attr title "number of active sessions"
vector 70 baselineTestQoS.hostLVD[13].app[0] numActiveSessions:vector ETV
attr interpolationmode sample-hold
attr recordingmode vector
attr source sum(connect)
attr title "number of active sessions"
vector 71 baselineTestQoS.hostLVD[14].app[0] numActiveSessions:vector ETV
attr interpolationmode sample-hold
attr recordingmode vector
attr source sum(connect)
attr title "number of active sessions"
vector 72 baselineTestQoS.hostLVD[15].app[0] numActiveSessions:vector ETV
attr interpolationmode sample-hold
attr recordingmode vector
attr source sum(connect)
attr title "number of active sessions"
vector 73 baselineTestQoS.hostLVD[16].app[0] numActiveSessions:vector ETV
attr interpolationmode sample-hold
attr recordingmode vector
attr source sum(connect)
attr title "number of active sessions"
vector 74 baselineTestQoS.hostLVD[17].app[0] numActiveSessions:vector ETV
attr interpolationmode sample-hold
attr recordingmode vector
attr source sum(connect)
attr title "number of active sessions"
vector 75 baselineTestQoS.hostLVD[18].app[0] numActiveSessions:vector ETV
attr interpolationmode sample-hold
attr recordingmode vector
attr source sum(connect)
attr title "number of active sessions"
vector 76 baselineTestQoS.hostLVD[19].app[0] numActiveSessions:vector ETV
attr interpolationmode sample-hold
attr recordingmode vector
attr source sum(connect)
attr title "number of active sessions"
vector 77 baselineTestQoS.hostLVD[20].app[0] numActiveSessions:vector ETV
attr interpolationmode sample-hold
attr recordingmode vector
attr source sum(connect)
attr title "number of active sessions"
vector 78 baselineTestQoS.hostLVD[21].app[0] numActiveSessions:vector ETV
attr interpolationmode sample-hold
attr recordingmode vector
attr source sum(connect)
attr title "number of active sessions"
vector 79 baselineTestQoS.hostLVD[22].app[0] numActiveSessions:vector ETV
attr interpolationmode sample-hold
attr recordingmode vector
attr source sum(connect)
attr title "number of active sessions"
vector 80 baselineTestQoS.hostLVD[23].app[0] numActiveSessions:vector ETV
attr interpolationmode sample-hold
attr recordingmode vector
attr source sum(connect)
attr title "number of active sessions"
vector 81 baselineTestQoS.hostLVD[24].app[0] numActiveSessions:vector ETV
attr interpolationmode sample-hold
attr recordingmode vector
attr source sum(connect)
attr title "number of active sessions"
vector 82 baselineTestQoS.hostLVD[25].app[0] numActiveSessions:vector ETV
attr interpolationmode sample-hold
attr recordingmode vector
attr source sum(connect)
attr title "number of active sessions"
vector 83 baselineTestQoS.hostFDO[0].app[0] numActiveSessions:vector ETV
attr interpolationmode sample-hold
attr recordingmode vector
attr source sum(connect)
attr title "number of active sessions"
vector 84 baselineTestQoS.hostFDO[1].app[0] numActiveSessions:vector ETV
attr interpolationmode sample-hold
attr recordingmode vector
attr source sum(connect)
attr title "number of active sessions"
vector 85 baselineTestQoS.hostFDO[2].app[0] numActiveSessions:vector ETV
attr interpolationmode sample-hold
attr recordingmode vector
attr source sum(connect)
attr title "number of active sessions"
vector 86 baselineTestQoS.hostFDO[3].app[0] numActiveSessions:vector ETV
attr interpolationmode sample-hold
attr recordingmode vector
attr source sum(connect)
attr title "number of active sessions"
vector 87 baselineTestQoS.hostFDO[4].app[0] numActiveSessions:vector ETV
attr interpolationmode sample-hold
attr recordingmode vector
attr source sum(connect)
attr title "number of active sessions"
vector 88 baselineTestQoS.hostFDO[5].app[0] numActiveSessions:vector ETV
attr interpolationmode sample-hold
attr recordingmode vector
attr source sum(connect)
attr title "number of active sessions"
vector 89 baselineTestQoS.hostFDO[6].app[0] numActiveSessions:vector ETV
attr interpolationmode sample-hold
attr recordingmode vector
attr source sum(connect)
attr title "number of active sessions"
vector 90 baselineTestQoS.hostSSH[0].app[0] numActiveSessions:vector ETV
attr "" ""
attr interpolationmode sample-hold
attr recordingmode vector
attr source sum(connect)
attr title "number of active sessions"
vector 91 baselineTestQoS.hostSSH[1].app[0] numActiveSessions:vector ETV
attr "" ""
attr interpolationmode sample-hold
attr recordingmode vector
attr source sum(connect)
attr title "number of active sessions"
vector 92 baselineTestQoS.hostSSH[2].app[0] numActiveSessions:vector ETV
attr "" ""
attr interpolationmode sample-hold
attr recordingmode vector
attr source sum(connect)
attr title "number of active sessions"
vector 93 baselineTestQoS.hostSSH[3].app[0] numActiveSessions:vector ETV
attr "" ""
attr interpolationmode sample-hold
attr recordingmode vector
attr source sum(connect)
attr title "number of active sessions"
vector 94 baselineTestQoS.hostSSH[4].app[0] numActiveSessions:vector ETV
attr "" ""
attr interpolationmode sample-hold
attr recordingmode vector
attr source sum(connect)
attr title "number of active sessions"
vector 95 baselineTestQoS.hostSSH[5].app[0] numActiveSessions:vector ETV
attr "" ""
attr interpolationmode sample-hold
attr recordingmode vector
attr source sum(connect)
attr title "number of active sessions"
vector 96 baselineTestQoS.hostSSH[6].app[0] numActiveSessions:vector ETV
attr "" ""
attr interpolationmode sample-hold
attr recordingmode vector
attr source sum(connect)
attr title "number of active sessions"
vector 97 baselineTestQoS.hostSSH[7].app[0] numActiveSessions:vector ETV
attr "" ""
attr interpolationmode sample-hold
attr recordingmode vector
attr source sum(connect)
attr title "number of active sessions"
vector 98 baselineTestQoS.hostSSH[8].app[0] numActiveSessions:vector ETV
attr "" ""
attr interpolationmode sample-hold
attr recordingmode vector
attr source sum(connect)
attr title "number of active sessions"
vector 99 baselineTestQoS.hostSSH[9].app[0] numActiveSessions:vector ETV
attr "" ""
attr interpolationmode sample-hold
attr recordingmode vector
attr source sum(connect)
attr title "number of active sessions"
vector 100 baselineTestQoS.hostVID[0].app[0] DASHBufferLength:vector ETV
attr recordingmode vector
attr title "Video buffer length (in seconds)"
vector 101 baselineTestQoS.hostVID[0].app[0] DASHVideoPlaybackPointer:vector ETV
attr recordingmode vector
attr title "Video playback pointer"
vector 102 baselineTestQoS.hostVID[0].app[0] DASHVideoBitrate:vector ETV
attr recordingmode vector
attr title "Requested video bitrate"
vector 103 baselineTestQoS.hostVID[0].app[0] DASHVideoResolution:vector ETV
attr recordingmode vector
attr title "Requested video resolution"
vector 104 baselineTestQoS.hostVID[1].app[0] DASHBufferLength:vector ETV
attr recordingmode vector
attr title "Video buffer length (in seconds)"
vector 105 baselineTestQoS.hostVID[1].app[0] DASHVideoPlaybackPointer:vector ETV
attr recordingmode vector
attr title "Video playback pointer"
vector 106 baselineTestQoS.hostVID[1].app[0] DASHVideoBitrate:vector ETV
attr recordingmode vector
attr title "Requested video bitrate"
vector 107 baselineTestQoS.hostVID[1].app[0] DASHVideoResolution:vector ETV
attr recordingmode vector
attr title "Requested video resolution"
vector 108 baselineTestQoS.hostVID[2].app[0] DASHBufferLength:vector ETV
attr recordingmode vector
attr title "Video buffer length (in seconds)"
vector 109 baselineTestQoS.hostVID[2].app[0] DASHVideoPlaybackPointer:vector ETV
attr recordingmode vector
attr title "Video playback pointer"
vector 110 baselineTestQoS.hostVID[2].app[0] DASHVideoBitrate:vector ETV
attr recordingmode vector
attr title "Requested video bitrate"
vector 111 baselineTestQoS.hostVID[2].app[0] DASHVideoResolution:vector ETV
attr recordingmode vector
attr title "Requested video resolution"
vector 112 baselineTestQoS.hostVID[3].app[0] DASHBufferLength:vector ETV
attr recordingmode vector
attr title "Video buffer length (in seconds)"
vector 113 baselineTestQoS.hostVID[3].app[0] DASHVideoPlaybackPointer:vector ETV
attr recordingmode vector
attr title "Video playback pointer"
vector 114 baselineTestQoS.hostVID[3].app[0] DASHVideoBitrate:vector ETV
attr recordingmode vector
attr title "Requested video bitrate"
vector 115 baselineTestQoS.hostVID[3].app[0] DASHVideoResolution:vector ETV
attr recordingmode vector
attr title "Requested video resolution"
vector 116 baselineTestQoS.hostVID[4].app[0] DASHBufferLength:vector ETV
attr recordingmode vector
attr title "Video buffer length (in seconds)"
vector 117 baselineTestQoS.hostVID[4].app[0] DASHVideoPlaybackPointer:vector ETV
attr recordingmode vector
attr title "Video playback pointer"
vector 118 baselineTestQoS.hostVID[4].app[0] DASHVideoBitrate:vector ETV
attr recordingmode vector
attr title "Requested video bitrate"
vector 119 baselineTestQoS.hostVID[4].app[0] DASHVideoResolution:vector ETV
attr recordingmode vector
attr title "Requested video resolution"
vector 120 baselineTestQoS.hostVID[5].app[0] DASHBufferLength:vector ETV
attr recordingmode vector
attr title "Video buffer length (in seconds)"
vector 121 baselineTestQoS.hostVID[5].app[0] DASHVideoPlaybackPointer:vector ETV
attr recordingmode vector
attr title "Video playback pointer"
vector 122 baselineTestQoS.hostVID[5].app[0] DASHVideoBitrate:vector ETV
attr recordingmode vector
attr title "Requested video bitrate"
vector 123 baselineTestQoS.hostVID[5].app[0] DASHVideoResolution:vector ETV
attr recordingmode vector
attr title "Requested video resolution"
vector 124 baselineTestQoS.hostVID[6].app[0] DASHBufferLength:vector ETV
attr recordingmode vector
attr title "Video buffer length (in seconds)"
vector 125 baselineTestQoS.hostVID[6].app[0] DASHVideoPlaybackPointer:vector ETV
attr recordingmode vector
attr title "Video playback pointer"
vector 126 baselineTestQoS.hostVID[6].app[0] DASHVideoBitrate:vector ETV
attr recordingmode vector
attr title "Requested video bitrate"
vector 127 baselineTestQoS.hostVID[6].app[0] DASHVideoResolution:vector ETV
attr recordingmode vector
attr title "Requested video resolution"
vector 128 baselineTestQoS.hostVID[7].app[0] DASHBufferLength:vector ETV
attr recordingmode vector
attr title "Video buffer length (in seconds)"
vector 129 baselineTestQoS.hostVID[7].app[0] DASHVideoPlaybackPointer:vector ETV
attr recordingmode vector
attr title "Video playback pointer"
vector 130 baselineTestQoS.hostVID[7].app[0] DASHVideoBitrate:vector ETV
attr recordingmode vector
attr title "Requested video bitrate"
vector 131 baselineTestQoS.hostVID[7].app[0] DASHVideoResolution:vector ETV
attr recordingmode vector
attr title "Requested video resolution"
vector 132 baselineTestQoS.hostVID[8].app[0] DASHBufferLength:vector ETV
attr recordingmode vector
attr title "Video buffer length (in seconds)"
vector 133 baselineTestQoS.hostVID[8].app[0] DASHVideoPlaybackPointer:vector ETV
attr recordingmode vector
attr title "Video playback pointer"
vector 134 baselineTestQoS.hostVID[8].app[0] DASHVideoBitrate:vector ETV
attr recordingmode vector
attr title "Requested video bitrate"
vector 135 baselineTestQoS.hostVID[8].app[0] DASHVideoResolution:vector ETV
attr recordingmode vector
attr title "Requested video resolution"
vector 136 baselineTestQoS.hostVID[9].app[0] DASHBufferLength:vector ETV
attr recordingmode vector
attr title "Video buffer length (in seconds)"
vector 137 baselineTestQoS.hostVID[9].app[0] DASHVideoPlaybackPointer:vector ETV
attr recordingmode vector
attr title "Video playback pointer"
vector 138 baselineTestQoS.hostVID[9].app[0] DASHVideoBitrate:vector ETV
attr recordingmode vector
attr title "Requested video bitrate"
vector 139 baselineTestQoS.hostVID[9].app[0] DASHVideoResolution:vector ETV
attr recordingmode vector
attr title "Requested video resolution"
vector 140 baselineTestQoS.hostVID[10].app[0] DASHBufferLength:vector ETV
attr recordingmode vector
attr title "Video buffer length (in seconds)"
vector 141 baselineTestQoS.hostVID[10].app[0] DASHVideoPlaybackPointer:vector ETV
attr recordingmode vector
attr title "Video playback pointer"
vector 142 baselineTestQoS.hostVID[10].app[0] DASHVideoBitrate:vector ETV
attr recordingmode vector
attr title "Requested video bitrate"
vector 143 baselineTestQoS.hostVID[10].app[0] DASHVideoResolution:vector ETV
attr recordingmode vector
attr title "Requested video resolution"
vector 144 baselineTestQoS.hostVID[11].app[0] DASHBufferLength:vector ETV
attr recordingmode vector
attr title "Video buffer length (in seconds)"
vector 145 baselineTestQoS.hostVID[11].app[0] DASHVideoPlaybackPointer:vector ETV
attr recordingmode vector
attr title "Video playback pointer"
vector 146 baselineTestQoS.hostVID[11].app[0] DASHVideoBitrate:vector ETV
attr recordingmode vector
attr title "Requested video bitrate"
vector 147 baselineTestQoS.hostVID[11].app[0] DASHVideoResolution:vector ETV
attr recordingmode vector
attr title "Requested video resolution"
vector 148 baselineTestQoS.hostVID[12].app[0] DASHBufferLength:vector ETV
attr recordingmode vector
attr title "Video buffer length (in seconds)"
vector 149 baselineTestQoS.hostVID[12].app[0] DASHVideoPlaybackPointer:vector ETV
attr recordingmode vector
attr title "Video playback pointer"
vector 150 baselineTestQoS.hostVID[12].app[0] DASHVideoBitrate:vector ETV
attr recordingmode vector
attr title "Requested video bitrate"
vector 151 baselineTestQoS.hostVID[12].app[0] DASHVideoResolution:vector ETV
attr recordingmode vector
attr title "Requested video resolution"
vector 152 baselineTestQoS.hostVID[13].app[0] DASHBufferLength:vector ETV
attr recordingmode vector
attr title "Video buffer length (in seconds)"
vector 153 baselineTestQoS.hostVID[13].app[0] DASHVideoPlaybackPointer:vector ETV
attr recordingmode vector
attr title "Video playback pointer"
vector 154 baselineTestQoS.hostVID[13].app[0] DASHVideoBitrate:vector ETV
attr recordingmode vector
attr title "Requested video bitrate"
vector 155 baselineTestQoS.hostVID[13].app[0] DASHVideoResolution:vector ETV
attr recordingmode vector
attr title "Requested video resolution"
vector 156 baselineTestQoS.hostVID[14].app[0] DASHBufferLength:vector ETV
attr recordingmode vector
attr title "Video buffer length (in seconds)"
vector 157 baselineTestQoS.hostVID[14].app[0] DASHVideoPlaybackPointer:vector ETV
attr recordingmode vector
attr title "Video playback pointer"
vector 158 baselineTestQoS.hostVID[14].app[0] DASHVideoBitrate:vector ETV
attr recordingmode vector
attr title "Requested video bitrate"
vector 159 baselineTestQoS.hostVID[14].app[0] DASHVideoResolution:vector ETV
attr recordingmode vector
attr title "Requested video resolution"
vector 160 baselineTestQoS.hostVID[15].app[0] DASHBufferLength:vector ETV
attr recordingmode vector
attr title "Video buffer length (in seconds)"
vector 161 baselineTestQoS.hostVID[15].app[0] DASHVideoPlaybackPointer:vector ETV
attr recordingmode vector
attr title "Video playback pointer"
vector 162 baselineTestQoS.hostVID[15].app[0] DASHVideoBitrate:vector ETV
attr recordingmode vector
attr title "Requested video bitrate"
vector 163 baselineTestQoS.hostVID[15].app[0] DASHVideoResolution:vector ETV
attr recordingmode vector
attr title "Requested video resolution"
vector 164 baselineTestQoS.hostVID[16].app[0] DASHBufferLength:vector ETV
attr recordingmode vector
attr title "Video buffer length (in seconds)"
vector 165 baselineTestQoS.hostVID[16].app[0] DASHVideoPlaybackPointer:vector ETV
attr recordingmode vector
attr title "Video playback pointer"
vector 166 baselineTestQoS.hostVID[16].app[0] DASHVideoBitrate:vector ETV
attr recordingmode vector
attr title "Requested video bitrate"
vector 167 baselineTestQoS.hostVID[16].app[0] DASHVideoResolution:vector ETV
attr recordingmode vector
attr title "Requested video resolution"
vector 168 baselineTestQoS.hostVID[17].app[0] DASHBufferLength:vector ETV
attr recordingmode vector
attr title "Video buffer length (in seconds)"
vector 169 baselineTestQoS.hostVID[17].app[0] DASHVideoPlaybackPointer:vector ETV
attr recordingmode vector
attr title "Video playback pointer"
vector 170 baselineTestQoS.hostVID[17].app[0] DASHVideoBitrate:vector ETV
attr recordingmode vector
attr title "Requested video bitrate"
vector 171 baselineTestQoS.hostVID[17].app[0] DASHVideoResolution:vector ETV
attr recordingmode vector
attr title "Requested video resolution"
vector 172 baselineTestQoS.hostVID[18].app[0] DASHBufferLength:vector ETV
attr recordingmode vector
attr title "Video buffer length (in seconds)"
vector 173 baselineTestQoS.hostVID[18].app[0] DASHVideoPlaybackPointer:vector ETV
attr recordingmode vector
attr title "Video playback pointer"
vector 174 baselineTestQoS.hostVID[18].app[0] DASHVideoBitrate:vector ETV
attr recordingmode vector
attr title "Requested video bitrate"
vector 175 baselineTestQoS.hostVID[18].app[0] DASHVideoResolution:vector ETV
attr recordingmode vector
attr title "Requested video resolution"
vector 176 baselineTestQoS.hostVID[19].app[0] DASHBufferLength:vector ETV
attr recordingmode vector
attr title "Video buffer length (in seconds)"
vector 177 baselineTestQoS.hostVID[19].app[0] DASHVideoPlaybackPointer:vector ETV
attr recordingmode vector
attr title "Video playback pointer"
vector 178 baselineTestQoS.hostVID[19].app[0] DASHVideoBitrate:vector ETV
attr recordingmode vector
attr title "Requested video bitrate"
vector 179 baselineTestQoS.hostVID[19].app[0] DASHVideoResolution:vector ETV
attr recordingmode vector
attr title "Requested video resolution"
vector 180 baselineTestQoS.hostVID[20].app[0] DASHBufferLength:vector ETV
attr recordingmode vector
attr title "Video buffer length (in seconds)"
vector 181 baselineTestQoS.hostVID[20].app[0] DASHVideoPlaybackPointer:vector ETV
attr recordingmode vector
attr title "Video playback pointer"
vector 182 baselineTestQoS.hostVID[20].app[0] DASHVideoBitrate:vector ETV
attr recordingmode vector
attr title "Requested video bitrate"
vector 183 baselineTestQoS.hostVID[20].app[0] DASHVideoResolution:vector ETV
attr recordingmode vector
attr title "Requested video resolution"
vector 184 baselineTestQoS.hostVID[21].app[0] DASHBufferLength:vector ETV
attr recordingmode vector
attr title "Video buffer length (in seconds)"
vector 185 baselineTestQoS.hostVID[21].app[0] DASHVideoPlaybackPointer:vector ETV
attr recordingmode vector
attr title "Video playback pointer"
vector 186 baselineTestQoS.hostVID[21].app[0] DASHVideoBitrate:vector ETV
attr recordingmode vector
attr title "Requested video bitrate"
vector 187 baselineTestQoS.hostVID[21].app[0] DASHVideoResolution:vector ETV
attr recordingmode vector
attr title "Requested video resolution"
vector 188 baselineTestQoS.hostVID[22].app[0] DASHBufferLength:vector ETV
attr recordingmode vector
attr title "Video buffer length (in seconds)"
vector 189 baselineTestQoS.hostVID[22].app[0] DASHVideoPlaybackPointer:vector ETV
attr recordingmode vector
attr title "Video playback pointer"
vector 190 baselineTestQoS.hostVID[22].app[0] DASHVideoBitrate:vector ETV
attr recordingmode vector
attr title "Requested video bitrate"
vector 191 baselineTestQoS.hostVID[22].app[0] DASHVideoResolution:vector ETV
attr recordingmode vector
attr title "Requested video resolution"
vector 192 baselineTestQoS.hostVID[23].app[0] DASHBufferLength:vector ETV
attr recordingmode vector
attr title "Video buffer length (in seconds)"
vector 193 baselineTestQoS.hostVID[23].app[0] DASHVideoPlaybackPointer:vector ETV
attr recordingmode vector
attr title "Video playback pointer"
vector 194 baselineTestQoS.hostVID[23].app[0] DASHVideoBitrate:vector ETV
attr recordingmode vector
attr title "Requested video bitrate"
vector 195 baselineTestQoS.hostVID[23].app[0] DASHVideoResolution:vector ETV
attr recordingmode vector
attr title "Requested video resolution"
vector 196 baselineTestQoS.hostVID[24].app[0] DASHBufferLength:vector ETV
attr recordingmode vector
attr title "Video buffer length (in seconds)"
vector 197 baselineTestQoS.hostVID[24].app[0] DASHVideoPlaybackPointer:vector ETV
attr recordingmode vector
attr title "Video playback pointer"
vector 198 baselineTestQoS.hostVID[24].app[0] DASHVideoBitrate:vector ETV
attr recordingmode vector
attr title "Requested video bitrate"
vector 199 baselineTestQoS.hostVID[24].app[0] DASHVideoResolution:vector ETV
attr recordingmode vector
attr title "Requested video resolution"
vector 200 baselineTestQoS.hostVID[25].app[0] DASHBufferLength:vector ETV
attr recordingmode vector
attr title "Video buffer length (in seconds)"
vector 201 baselineTestQoS.hostVID[25].app[0] DASHVideoPlaybackPointer:vector ETV
attr recordingmode vector
attr title "Video playback pointer"
vector 202 baselineTestQoS.hostVID[25].app[0] DASHVideoBitrate:vector ETV
attr recordingmode vector
attr title "Requested video bitrate"
vector 203 baselineTestQoS.hostVID[25].app[0] DASHVideoResolution:vector ETV
attr recordingmode vector
attr title "Requested video resolution"
vector 204 baselineTestQoS.hostVID[26].app[0] DASHBufferLength:vector ETV
attr recordingmode vector
attr title "Video buffer length (in seconds)"
vector 205 baselineTestQoS.hostVID[26].app[0] DASHVideoPlaybackPointer:vector ETV
attr recordingmode vector
attr title "Video playback pointer"
vector 206 baselineTestQoS.hostVID[26].app[0] DASHVideoBitrate:vector ETV
attr recordingmode vector
attr title "Requested video bitrate"
vector 207 baselineTestQoS.hostVID[26].app[0] DASHVideoResolution:vector ETV
attr recordingmode vector
attr title "Requested video resolution"
vector 208 baselineTestQoS.hostVID[27].app[0] DASHBufferLength:vector ETV
attr recordingmode vector
attr title "Video buffer length (in seconds)"
vector 209 baselineTestQoS.hostVID[27].app[0] DASHVideoPlaybackPointer:vector ETV
attr recordingmode vector
attr title "Video playback pointer"
vector 210 baselineTestQoS.hostVID[27].app[0] DASHVideoBitrate:vector ETV
attr recordingmode vector
attr title "Requested video bitrate"
vector 211 baselineTestQoS.hostVID[27].app[0] DASHVideoResolution:vector ETV
attr recordingmode vector
attr title "Requested video resolution"
vector 212 baselineTestQoS.hostVID[28].app[0] DASHBufferLength:vector ETV
attr recordingmode vector
attr title "Video buffer length (in seconds)"
vector 213 baselineTestQoS.hostVID[28].app[0] DASHVideoPlaybackPointer:vector ETV
attr recordingmode vector
attr title "Video playback pointer"
vector 214 baselineTestQoS.hostVID[28].app[0] DASHVideoBitrate:vector ETV
attr recordingmode vector
attr title "Requested video bitrate"
vector 215 baselineTestQoS.hostVID[28].app[0] DASHVideoResolution:vector ETV
attr recordingmode vector
attr title "Requested video resolution"
vector 216 baselineTestQoS.hostVID[29].app[0] DASHBufferLength:vector ETV
attr recordingmode vector
attr title "Video buffer length (in seconds)"
vector 217 baselineTestQoS.hostVID[29].app[0] DASHVideoPlaybackPointer:vector ETV
attr recordingmode vector
attr title "Video playback pointer"
vector 218 baselineTestQoS.hostVID[29].app[0] DASHVideoBitrate:vector ETV
attr recordingmode vector
attr title "Requested video bitrate"
vector 219 baselineTestQoS.hostVID[29].app[0] DASHVideoResolution:vector ETV
attr recordingmode vector
attr title "Requested video resolution"
vector 220 baselineTestQoS.hostVID[30].app[0] DASHBufferLength:vector ETV
attr recordingmode vector
attr title "Video buffer length (in seconds)"
vector 221 baselineTestQoS.hostVID[30].app[0] DASHVideoPlaybackPointer:vector ETV
attr recordingmode vector
attr title "Video playback pointer"
vector 222 baselineTestQoS.hostVID[30].app[0] DASHVideoBitrate:vector ETV
attr recordingmode vector
attr title "Requested video bitrate"
vector 223 baselineTestQoS.hostVID[30].app[0] DASHVideoResolution:vector ETV
attr recordingmode vector
attr title "Requested video resolution"
vector 224 baselineTestQoS.hostVID[31].app[0] DASHBufferLength:vector ETV
attr recordingmode vector
attr title "Video buffer length (in seconds)"
vector 225 baselineTestQoS.hostVID[31].app[0] DASHVideoPlaybackPointer:vector ETV
attr recordingmode vector
attr title "Video playback pointer"
vector 226 baselineTestQoS.hostVID[31].app[0] DASHVideoBitrate:vector ETV
attr recordingmode vector
attr title "Requested video bitrate"
vector 227 baselineTestQoS.hostVID[31].app[0] DASHVideoResolution:vector ETV
attr recordingmode vector
attr title "Requested video resolution"
vector 228 baselineTestQoS.hostVID[32].app[0] DASHBufferLength:vector ETV
attr recordingmode vector
attr title "Video buffer length (in seconds)"
vector 229 baselineTestQoS.hostVID[32].app[0] DASHVideoPlaybackPointer:vector ETV
attr recordingmode vector
attr title "Video playback pointer"
vector 230 baselineTestQoS.hostVID[32].app[0] DASHVideoBitrate:vector ETV
attr recordingmode vector
attr title "Requested video bitrate"
vector 231 baselineTestQoS.hostVID[32].app[0] DASHVideoResolution:vector ETV
attr recordingmode vector
attr title "Requested video resolution"
vector 232 baselineTestQoS.hostVID[33].app[0] DASHBufferLength:vector ETV
attr recordingmode vector
attr title "Video buffer length (in seconds)"
vector 233 baselineTestQoS.hostVID[33].app[0] DASHVideoPlaybackPointer:vector ETV
attr recordingmode vector
attr title "Video playback pointer"
vector 234 baselineTestQoS.hostVID[33].app[0] DASHVideoBitrate:vector ETV
attr recordingmode vector
attr title "Requested video bitrate"
vector 235 baselineTestQoS.hostVID[33].app[0] DASHVideoResolution:vector ETV
attr recordingmode vector
attr title "Requested video resolution"
vector 236 baselineTestQoS.hostVID[34].app[0] DASHBufferLength:vector ETV
attr recordingmode vector
attr title "Video buffer length (in seconds)"
vector 237 baselineTestQoS.hostVID[34].app[0] DASHVideoPlaybackPointer:vector ETV
attr recordingmode vector
attr title "Video playback pointer"
vector 238 baselineTestQoS.hostVID[34].app[0] DASHVideoBitrate:vector ETV
attr recordingmode vector
attr title "Requested video bitrate"
vector 239 baselineTestQoS.hostVID[34].app[0] DASHVideoResolution:vector ETV
attr recordingmode vector
attr title "Requested video resolution"
vector 240 baselineTestQoS.hostVID[35].app[0] DASHBufferLength:vector ETV
attr recordingmode vector
attr title "Video buffer length (in seconds)"
vector 241 baselineTestQoS.hostVID[35].app[0] DASHVideoPlaybackPointer:vector ETV
attr recordingmode vector
attr title "Video playback pointer"
vector 242 baselineTestQoS.hostVID[35].app[0] DASHVideoBitrate:vector ETV
attr recordingmode vector
attr title "Requested video bitrate"
vector 243 baselineTestQoS.hostVID[35].app[0] DASHVideoResolution:vector ETV
attr recordingmode vector
attr title "Requested video resolution"
vector 244 baselineTestQoS.hostVID[36].app[0] DASHBufferLength:vector ETV
attr recordingmode vector
attr title "Video buffer length (in seconds)"
vector 245 baselineTestQoS.hostVID[36].app[0] DASHVideoPlaybackPointer:vector ETV
attr recordingmode vector
attr title "Video playback pointer"
vector 246 baselineTestQoS.hostVID[36].app[0] DASHVideoBitrate:vector ETV
attr recordingmode vector
attr title "Requested video bitrate"
vector 247 baselineTestQoS.hostVID[36].app[0] DASHVideoResolution:vector ETV
attr recordingmode vector
attr title "Requested video resolution"
vector 248 baselineTestQoS.hostVID[37].app[0] DASHBufferLength:vector ETV
attr recordingmode vector
attr title "Video buffer length (in seconds)"
vector 249 baselineTestQoS.hostVID[37].app[0] DASHVideoPlaybackPointer:vector ETV
attr recordingmode vector
attr title "Video playback pointer"
vector 250 baselineTestQoS.hostVID[37].app[0] DASHVideoBitrate:vector ETV
attr recordingmode vector
attr title "Requested video bitrate"
vector 251 baselineTestQoS.hostVID[37].app[0] DASHVideoResolution:vector ETV
attr recordingmode vector
attr title "Requested video resolution"
vector 252 baselineTestQoS.hostVID[38].app[0] DASHBufferLength:vector ETV
attr recordingmode vector
attr title "Video buffer length (in seconds)"
vector 253 baselineTestQoS.hostVID[38].app[0] DASHVideoPlaybackPointer:vector ETV
attr recordingmode vector
attr title "Video playback pointer"
vector 254 baselineTestQoS.hostVID[38].app[0] DASHVideoBitrate:vector ETV
attr recordingmode vector
attr title "Requested video bitrate"
vector 255 baselineTestQoS.hostVID[38].app[0] DASHVideoResolution:vector ETV
attr recordingmode vector
attr title "Requested video resolution"
vector 256 baselineTestQoS.hostVID[39].app[0] DASHBufferLength:vector ETV
attr recordingmode vector
attr title "Video buffer length (in seconds)"
vector 257 baselineTestQoS.hostVID[39].app[0] DASHVideoPlaybackPointer:vector ETV
attr recordingmode vector
attr title "Video playback pointer"
vector 258 baselineTestQoS.hostVID[39].app[0] DASHVideoBitrate:vector ETV
attr recordingmode vector
attr title "Requested video bitrate"
vector 259 baselineTestQoS.hostVID[39].app[0] DASHVideoResolution:vector ETV
attr recordingmode vector
attr title "Requested video resolution"
vector 260 baselineTestQoS.hostVID[40].app[0] DASHBufferLength:vector ETV
attr recordingmode vector
attr title "Video buffer length (in seconds)"
vector 261 baselineTestQoS.hostVID[40].app[0] DASHVideoPlaybackPointer:vector ETV
attr recordingmode vector
attr title "Video playback pointer"
vector 262 baselineTestQoS.hostVID[40].app[0] DASHVideoBitrate:vector ETV
attr recordingmode vector
attr title "Requested video bitrate"
vector 263 baselineTestQoS.hostVID[40].app[0] DASHVideoResolution:vector ETV
attr recordingmode vector
attr title "Requested video resolution"
vector 264 baselineTestQoS.hostVID[41].app[0] DASHBufferLength:vector ETV
attr recordingmode vector
attr title "Video buffer length (in seconds)"
vector 265 baselineTestQoS.hostVID[41].app[0] DASHVideoPlaybackPointer:vector ETV
attr recordingmode vector
attr title "Video playback pointer"
vector 266 baselineTestQoS.hostVID[41].app[0] DASHVideoBitrate:vector ETV
attr recordingmode vector
attr title "Requested video bitrate"
vector 267 baselineTestQoS.hostVID[41].app[0] DASHVideoResolution:vector ETV
attr recordingmode vector
attr title "Requested video resolution"
vector 268 baselineTestQoS.hostVID[42].app[0] DASHBufferLength:vector ETV
attr recordingmode vector
attr title "Video buffer length (in seconds)"
vector 269 baselineTestQoS.hostVID[42].app[0] DASHVideoPlaybackPointer:vector ETV
attr recordingmode vector
attr title "Video playback pointer"
vector 270 baselineTestQoS.hostVID[42].app[0] DASHVideoBitrate:vector ETV
attr recordingmode vector
attr title "Requested video bitrate"
vector 271 baselineTestQoS.hostVID[42].app[0] DASHVideoResolution:vector ETV
attr recordingmode vector
attr title "Requested video resolution"
vector 272 baselineTestQoS.hostVID[43].app[0] DASHBufferLength:vector ETV
attr recordingmode vector
attr title "Video buffer length (in seconds)"
vector 273 baselineTestQoS.hostVID[43].app[0] DASHVideoPlaybackPointer:vector ETV
attr recordingmode vector
attr title "Video playback pointer"
vector 274 baselineTestQoS.hostVID[43].app[0] DASHVideoBitrate:vector ETV
attr recordingmode vector
attr title "Requested video bitrate"
vector 275 baselineTestQoS.hostVID[43].app[0] DASHVideoResolution:vector ETV
attr recordingmode vector
attr title "Requested video resolution"
vector 276 baselineTestQoS.hostVID[44].app[0] DASHBufferLength:vector ETV
attr recordingmode vector
attr title "Video buffer length (in seconds)"
vector 277 baselineTestQoS.hostVID[44].app[0] DASHVideoPlaybackPointer:vector ETV
attr recordingmode vector
attr title "Video playback pointer"
vector 278 baselineTestQoS.hostVID[44].app[0] DASHVideoBitrate:vector ETV
attr recordingmode vector
attr title "Requested video bitrate"
vector 279 baselineTestQoS.hostVID[44].app[0] DASHVideoResolution:vector ETV
attr recordingmode vector
attr title "Requested video resolution"
vector 280 baselineTestQoS.hostVID[45].app[0] DASHBufferLength:vector ETV
attr recordingmode vector
attr title "Video buffer length (in seconds)"
vector 281 baselineTestQoS.hostVID[45].app[0] DASHVideoPlaybackPointer:vector ETV
attr recordingmode vector
attr title "Video playback pointer"
vector 282 baselineTestQoS.hostVID[45].app[0] DASHVideoBitrate:vector ETV
attr recordingmode vector
attr title "Requested video bitrate"
vector 283 baselineTestQoS.hostVID[45].app[0] DASHVideoResolution:vector ETV
attr recordingmode vector
attr title "Requested video resolution"
vector 284 baselineTestQoS.hostVID[46].app[0] DASHBufferLength:vector ETV
attr recordingmode vector
attr title "Video buffer length (in seconds)"
vector 285 baselineTestQoS.hostVID[46].app[0] DASHVideoPlaybackPointer:vector ETV
attr recordingmode vector
attr title "Video playback pointer"
vector 286 baselineTestQoS.hostVID[46].app[0] DASHVideoBitrate:vector ETV
attr recordingmode vector
attr title "Requested video bitrate"
vector 287 baselineTestQoS.hostVID[46].app[0] DASHVideoResolution:vector ETV
attr recordingmode vector
attr title "Requested video resolution"
vector 288 baselineTestQoS.hostVID[47].app[0] DASHBufferLength:vector ETV
attr recordingmode vector
attr title "Video buffer length (in seconds)"
vector 289 baselineTestQoS.hostVID[47].app[0] DASHVideoPlaybackPointer:vector ETV
attr recordingmode vector
attr title "Video playback pointer"
vector 290 baselineTestQoS.hostVID[47].app[0] DASHVideoBitrate:vector ETV
attr recordingmode vector
attr title "Requested video bitrate"
vector 291 baselineTestQoS.hostVID[47].app[0] DASHVideoResolution:vector ETV
attr recordingmode vector
attr title "Requested video resolution"
vector 292 baselineTestQoS.hostVID[48].app[0] DASHBufferLength:vector ETV
attr recordingmode vector
attr title "Video buffer length (in seconds)"
vector 293 baselineTestQoS.hostVID[48].app[0] DASHVideoPlaybackPointer:vector ETV
attr recordingmode vector
attr title "Video playback pointer"
vector 294 baselineTestQoS.hostVID[48].app[0] DASHVideoBitrate:vector ETV
attr recordingmode vector
attr title "Requested video bitrate"
vector 295 baselineTestQoS.hostVID[48].app[0] DASHVideoResolution:vector ETV
attr recordingmode vector
attr title "Requested video resolution"
vector 296 baselineTestQoS.hostVID[49].app[0] DASHBufferLength:vector ETV
attr recordingmode vector
attr title "Video buffer length (in seconds)"
vector 297 baselineTestQoS.hostVID[49].app[0] DASHVideoPlaybackPointer:vector ETV
attr recordingmode vector
attr title "Video playback pointer"
vector 298 baselineTestQoS.hostVID[49].app[0] DASHVideoBitrate:vector ETV
attr recordingmode vector
attr title "Requested video bitrate"
vector 299 baselineTestQoS.hostVID[49].app[0] DASHVideoResolution:vector ETV
attr recordingmode vector
attr title "Requested video resolution"
vector 300 baselineTestQoS.hostVID[50].app[0] DASHBufferLength:vector ETV
attr recordingmode vector
attr title "Video buffer length (in seconds)"
vector 301 baselineTestQoS.hostVID[50].app[0] DASHVideoPlaybackPointer:vector ETV
attr recordingmode vector
attr title "Video playback pointer"
vector 302 baselineTestQoS.hostVID[50].app[0] DASHVideoBitrate:vector ETV
attr recordingmode vector
attr title "Requested video bitrate"
vector 303 baselineTestQoS.hostVID[50].app[0] DASHVideoResolution:vector ETV
attr recordingmode vector
attr title "Requested video resolution"
vector 304 baselineTestQoS.hostVID[51].app[0] DASHBufferLength:vector ETV
attr recordingmode vector
attr title "Video buffer length (in seconds)"
vector 305 baselineTestQoS.hostVID[51].app[0] DASHVideoPlaybackPointer:vector ETV
attr recordingmode vector
attr title "Video playback pointer"
vector 306 baselineTestQoS.hostVID[51].app[0] DASHVideoBitrate:vector ETV
attr recordingmode vector
attr title "Requested video bitrate"
vector 307 baselineTestQoS.hostVID[51].app[0] DASHVideoResolution:vector ETV
attr recordingmode vector
attr title "Requested video resolution"
vector 308 baselineTestQoS.hostVID[52].app[0] DASHBufferLength:vector ETV
attr recordingmode vector
attr title "Video buffer length (in seconds)"
vector 309 baselineTestQoS.hostVID[52].app[0] DASHVideoPlaybackPointer:vector ETV
attr recordingmode vector
attr title "Video playback pointer"
vector 310 baselineTestQoS.hostVID[52].app[0] DASHVideoBitrate:vector ETV
attr recordingmode vector
attr title "Requested video bitrate"
vector 311 baselineTestQoS.hostVID[52].app[0] DASHVideoResolution:vector ETV
attr recordingmode vector
attr title "Requested video resolution"
vector 312 baselineTestQoS.hostVID[53].app[0] DASHBufferLength:vector ETV
attr recordingmode vector
attr title "Video buffer length (in seconds)"
vector 313 baselineTestQoS.hostVID[53].app[0] DASHVideoPlaybackPointer:vector ETV
attr recordingmode vector
attr title "Video playback pointer"
vector 314 baselineTestQoS.hostVID[53].app[0] DASHVideoBitrate:vector ETV
attr recordingmode vector
attr title "Requested video bitrate"
vector 315 baselineTestQoS.hostVID[53].app[0] DASHVideoResolution:vector ETV
attr recordingmode vector
attr title "Requested video resolution"
vector 316 baselineTestQoS.hostVID[54].app[0] DASHBufferLength:vector ETV
attr recordingmode vector
attr title "Video buffer length (in seconds)"
vector 317 baselineTestQoS.hostVID[54].app[0] DASHVideoPlaybackPointer:vector ETV
attr recordingmode vector
attr title "Video playback pointer"
vector 318 baselineTestQoS.hostVID[54].app[0] DASHVideoBitrate:vector ETV
attr recordingmode vector
attr title "Requested video bitrate"
vector 319 baselineTestQoS.hostVID[54].app[0] DASHVideoResolution:vector ETV
attr recordingmode vector
attr title "Requested video resolution"
vector 320 baselineTestQoS.hostVID[55].app[0] DASHBufferLength:vector ETV
attr recordingmode vector
attr title "Video buffer length (in seconds)"
vector 321 baselineTestQoS.hostVID[55].app[0] DASHVideoPlaybackPointer:vector ETV
attr recordingmode vector
attr title "Video playback pointer"
vector 322 baselineTestQoS.hostVID[55].app[0] DASHVideoBitrate:vector ETV
attr recordingmode vector
attr title "Requested video bitrate"
vector 323 baselineTestQoS.hostVID[55].app[0] DASHVideoResolution:vector ETV
attr recordingmode vector
attr title "Requested video resolution"
vector 324 baselineTestQoS.hostVID[56].app[0] DASHBufferLength:vector ETV
attr recordingmode vector
attr title "Video buffer length (in seconds)"
vector 325 baselineTestQoS.hostVID[56].app[0] DASHVideoPlaybackPointer:vector ETV
attr recordingmode vector
attr title "Video playback pointer"
vector 326 baselineTestQoS.hostVID[56].app[0] DASHVideoBitrate:vector ETV
attr recordingmode vector
attr title "Requested video bitrate"
vector 327 baselineTestQoS.hostVID[56].app[0] DASHVideoResolution:vector ETV
attr recordingmode vector
attr title "Requested video resolution"
vector 328 baselineTestQoS.hostLVD[0].app[0] DASHBufferLength:vector ETV
attr recordingmode vector
attr title "Video buffer length (in seconds)"
vector 329 baselineTestQoS.hostLVD[0].app[0] DASHVideoPlaybackPointer:vector ETV
attr recordingmode vector
attr title "Video playback pointer"
vector 330 baselineTestQoS.hostLVD[0].app[0] DASHVideoBitrate:vector ETV
attr recordingmode vector
attr title "Requested video bitrate"
vector 331 baselineTestQoS.hostLVD[0].app[0] DASHVideoResolution:vector ETV
attr recordingmode vector
attr title "Requested video resolution"
vector 332 baselineTestQoS.hostLVD[1].app[0] DASHBufferLength:vector ETV
attr recordingmode vector
attr title "Video buffer length (in seconds)"
vector 333 baselineTestQoS.hostLVD[1].app[0] DASHVideoPlaybackPointer:vector ETV
attr recordingmode vector
attr title "Video playback pointer"
vector 334 baselineTestQoS.hostLVD[1].app[0] DASHVideoBitrate:vector ETV
attr recordingmode vector
attr title "Requested video bitrate"
vector 335 baselineTestQoS.hostLVD[1].app[0] DASHVideoResolution:vector ETV
attr recordingmode vector
attr title "Requested video resolution"
vector 336 baselineTestQoS.hostLVD[2].app[0] DASHBufferLength:vector ETV
attr recordingmode vector
attr title "Video buffer length (in seconds)"
vector 337 baselineTestQoS.hostLVD[2].app[0] DASHVideoPlaybackPointer:vector ETV
attr recordingmode vector
attr title "Video playback pointer"
vector 338 baselineTestQoS.hostLVD[2].app[0] DASHVideoBitrate:vector ETV
attr recordingmode vector
attr title "Requested video bitrate"
vector 339 baselineTestQoS.hostLVD[2].app[0] DASHVideoResolution:vector ETV
attr recordingmode vector
attr title "Requested video resolution"
vector 340 baselineTestQoS.hostLVD[3].app[0] DASHBufferLength:vector ETV
attr recordingmode vector
attr title "Video buffer length (in seconds)"
vector 341 baselineTestQoS.hostLVD[3].app[0] DASHVideoPlaybackPointer:vector ETV
attr recordingmode vector
attr title "Video playback pointer"
vector 342 baselineTestQoS.hostLVD[3].app[0] DASHVideoBitrate:vector ETV
attr recordingmode vector
attr title "Requested video bitrate"
vector 343 baselineTestQoS.hostLVD[3].app[0] DASHVideoResolution:vector ETV
attr recordingmode vector
attr title "Requested video resolution"
vector 344 baselineTestQoS.hostLVD[4].app[0] DASHBufferLength:vector ETV
attr recordingmode vector
attr title "Video buffer length (in seconds)"
vector 345 baselineTestQoS.hostLVD[4].app[0] DASHVideoPlaybackPointer:vector ETV
attr recordingmode vector
attr title "Video playback pointer"
vector 346 baselineTestQoS.hostLVD[4].app[0] DASHVideoBitrate:vector ETV
attr recordingmode vector
attr title "Requested video bitrate"
vector 347 baselineTestQoS.hostLVD[4].app[0] DASHVideoResolution:vector ETV
attr recordingmode vector
attr title "Requested video resolution"
vector 348 baselineTestQoS.hostLVD[5].app[0] DASHBufferLength:vector ETV
attr recordingmode vector
attr title "Video buffer length (in seconds)"
vector 349 baselineTestQoS.hostLVD[5].app[0] DASHVideoPlaybackPointer:vector ETV
attr recordingmode vector
attr title "Video playback pointer"
vector 350 baselineTestQoS.hostLVD[5].app[0] DASHVideoBitrate:vector ETV
attr recordingmode vector
attr title "Requested video bitrate"
vector 351 baselineTestQoS.hostLVD[5].app[0] DASHVideoResolution:vector ETV
attr recordingmode vector
attr title "Requested video resolution"
vector 352 baselineTestQoS.hostLVD[6].app[0] DASHBufferLength:vector ETV
attr recordingmode vector
attr title "Video buffer length (in seconds)"
vector 353 baselineTestQoS.hostLVD[6].app[0] DASHVideoPlaybackPointer:vector ETV
attr recordingmode vector
attr title "Video playback pointer"
vector 354 baselineTestQoS.hostLVD[6].app[0] DASHVideoBitrate:vector ETV
attr recordingmode vector
attr title "Requested video bitrate"
vector 355 baselineTestQoS.hostLVD[6].app[0] DASHVideoResolution:vector ETV
attr recordingmode vector
attr title "Requested video resolution"
vector 356 baselineTestQoS.hostLVD[7].app[0] DASHBufferLength:vector ETV
attr recordingmode vector
attr title "Video buffer length (in seconds)"
[...]
attr title "Requested video bitrate"
vector 375 baselineTestQoS.hostLVD[11].app[0] DASHVideoResolution:vector ETV
attr recordingmode vector
attr title "Requested video resolution"
vector 376 baselineTestQoS.hostLVD[12].app[0] DASHBufferLength:vector ETV
attr recordingmode vector
attr title "Video buffer length (in seconds)"
vector 377 baselineTestQoS.hostLVD[12].app[0] DASHVideoPlaybackPointer:vector ETV
attr recordingmode vector
attr title "Video playback pointer"
vector 378 baselineTestQoS.hostLVD[12].app[0] DASHVideoBitrate:vector ETV
attr recordingmode vector
attr title "Requested video bitrate"
vector 379 baselineTestQoS.hostLVD[12].app[0] DASHVideoResolution:vector ETV
attr recordingmode vector
attr title "Requested video resolution"
vector 380 baselineTestQoS.hostLVD[13].app[0] DASHBufferLength:vector ETV
attr recordingmode vector
attr title "Video buffer length (in seconds)"
vector 381 baselineTestQoS.hostLVD[13].app[0] DASHVideoPlaybackPointer:vector ETV
attr recordingmode vector
attr title "Video playback pointer"
vector 382 baselineTestQoS.hostLVD[13].app[0] DASHVideoBitrate:vector ETV
attr recordingmode vector
attr title "Requested video bitrate"
vector 383 baselineTestQoS.hostLVD[13].app[0] DASHVideoResolution:vector ETV
attr recordingmode vector
attr title "Requested video resolution"
vector 384 baselineTestQoS.hostLVD[14].app[0] DASHBufferLength:vector ETV
attr recordingmode vector
attr title "Video buffer length (in seconds)"
vector 385 baselineTestQoS.hostLVD[14].app[0] DASHVideoPlaybackPointer:vector ETV
attr recordingmode vector
attr title "Video playback pointer"
vector 386 baselineTestQoS.hostLVD[14].app[0] DASHVideoBitrate:vector ETV
attr recordingmode vector
attr title "Requested video bitrate"
vector 387 baselineTestQoS.hostLVD[14].app[0] DASHVideoResolution:vector ETV
attr recordingmode vector
attr title "Requested video resolution"
vector 388 baselineTestQoS.hostLVD[15].app[0] DASHBufferLength:vector ETV
attr recordingmode vector
attr title "Video buffer length (in seconds)"
vector 389 baselineTestQoS.hostLVD[15].app[0] DASHVideoPlaybackPointer:vector ETV
attr recordingmode vector
attr title "Video playback pointer"
vector 390 baselineTestQoS.hostLVD[15].app[0] DASHVideoBitrate:vector ETV
attr recordingmode vector
attr title "Requested video bitrate"
vector 391 baselineTestQoS.hostLVD[15].app[0] DASHVideoResolution:vector ETV
attr recordingmode vector
attr title "Requested video resolution"
vector 392 baselineTestQoS.hostLVD[16].app[0] DASHBufferLength:vector ETV
attr recordingmode vector
attr title "Video buffer length (in seconds)"
vector 393 baselineTestQoS.hostLVD[16].app[0] DASHVideoPlaybackPointer:vector ETV
attr recordingmode vector
attr title "Video playback pointer"
vector 394 baselineTestQoS.hostLVD[16].app[0] DASHVideoBitrate:vector ETV
attr recordingmode vector
attr title "Requested video bitrate"
vector 395 baselineTestQoS.hostLVD[16].app[0] DASHVideoResolution:vector ETV
attr recordingmode vector
attr title "Requested video resolution"
vector 396 baselineTestQoS.hostLVD[17].app[0] DASHBufferLength:vector ETV
attr recordingmode vector
attr title "Video buffer length (in seconds)"
vector 397 baselineTestQoS.hostLVD[17].app[0] DASHVideoPlaybackPointer:vector ETV
attr recordingmode vector
attr title "Video playback pointer"
vector 398 baselineTestQoS.hostLVD[17].app[0] DASHVideoBitrate:vector ETV
attr recordingmode vector
attr title "Requested video bitrate"
vector 399 baselineTestQoS.hostLVD[17].app[0] DASHVideoResolution:vector ETV
attr recordingmode vector
attr title "Requested video resolution"
vector 400 baselineTestQoS.hostLVD[18].app[0] DASHBufferLength:vector ETV
attr recordingmode vector
attr title "Video buffer length (in seconds)"
vector 401 baselineTestQoS.hostLVD[18].app[0] DASHVideoPlaybackPointer:vector ETV
attr recordingmode vector
attr title "Video playback pointer"
vector 402 baselineTestQoS.hostLVD[18].app[0] DASHVideoBitrate:vector ETV
attr recordingmode vector
attr title "Requested video bitrate"
vector 403 baselineTestQoS.hostLVD[18].app[0] DASHVideoResolution:vector ETV
attr recordingmode vector
attr title "Requested video resolution"
vector 404 baselineTestQoS.hostLVD[19].app[0] DASHBufferLength:vector ETV
attr recordingmode vector
attr title "Video buffer length (in seconds)"
vector 405 baselineTestQoS.hostLVD[19].app[0] DASHVideoPlaybackPointer:vector ETV
attr recordingmode vector
attr title "Video playback pointer"
vector 406 baselineTestQoS.hostLVD[19].app[0] DASHVideoBitrate:vector ETV
attr recordingmode vector
attr title "Requested video bitrate"
vector 407 baselineTestQoS.hostLVD[19].app[0] DASHVideoResolution:vector ETV
attr recordingmode vector
attr title "Requested video resolution"
vector 408 baselineTestQoS.hostLVD[20].app[0] DASHBufferLength:vector ETV
attr recordingmode vector
attr title "Video buffer length (in seconds)"
vector 409 baselineTestQoS.hostLVD[20].app[0] DASHVideoPlaybackPointer:vector ETV
attr recordingmode vector
attr title "Video playback pointer"
vector 410 baselineTestQoS.hostLVD[20].app[0] DASHVideoBitrate:vector ETV
attr recordingmode vector
attr title "Requested video bitrate"
vector 411 baselineTestQoS.hostLVD[20].app[0] DASHVideoResolution:vector ETV
attr recordingmode vector
attr title "Requested video resolution"
vector 412 baselineTestQoS.hostLVD[21].app[0] DASHBufferLength:vector ETV
attr recordingmode vector
attr title "Video buffer length (in seconds)"
vector 413 baselineTestQoS.hostLVD[21].app[0] DASHVideoPlaybackPointer:vector ETV
attr recordingmode vector
attr title "Video playback pointer"
vector 414 baselineTestQoS.hostLVD[21].app[0] DASHVideoBitrate:vector ETV
attr recordingmode vector
attr title "Requested video bitrate"
vector 415 baselineTestQoS.hostLVD[21].app[0] DASHVideoResolution:vector ETV
attr recordingmode vector
attr title "Requested video resolution"
vector 416 baselineTestQoS.hostLVD[22].app[0] DASHBufferLength:vector ETV
attr recordingmode vector
attr title "Video buffer length (in seconds)"
vector 417 baselineTestQoS.hostLVD[22].app[0] DASHVideoPlaybackPointer:vector ETV
attr recordingmode vector
attr title "Video playback pointer"
vector 418 baselineTestQoS.hostLVD[22].app[0] DASHVideoBitrate:vector ETV
attr recordingmode vector
attr title "Requested video bitrate"
vector 419 baselineTestQoS.hostLVD[22].app[0] DASHVideoResolution:vector ETV
attr recordingmode vector
attr title "Requested video resolution"
vector 420 baselineTestQoS.hostLVD[23].app[0] DASHBufferLength:vector ETV
attr recordingmode vector
attr title "Video buffer length (in seconds)"
vector 421 baselineTestQoS.hostLVD[23].app[0] DASHVideoPlaybackPointer:vector ETV
attr recordingmode vector
attr title "Video playback pointer"
vector 422 baselineTestQoS.hostLVD[23].app[0] DASHVideoBitrate:vector ETV
attr recordingmode vector
attr title "Requested video bitrate"
vector 423 baselineTestQoS.hostLVD[23].app[0] DASHVideoResolution:vector ETV
attr recordingmode vector
attr title "Requested video resolution"
vector 424 baselineTestQoS.hostLVD[24].app[0] DASHBufferLength:vector ETV
attr recordingmode vector
attr title "Video buffer length (in seconds)"
vector 425 baselineTestQoS.hostLVD[24].app[0] DASHVideoPlaybackPointer:vector ETV
attr recordingmode vector
attr title "Video playback pointer"
vector 426 baselineTestQoS.hostLVD[24].app[0] DASHVideoBitrate:vector ETV
attr recordingmode vector
attr title "Requested video bitrate"
vector 427 baselineTestQoS.hostLVD[24].app[0] DASHVideoResolution:vector ETV
attr recordingmode vector
attr title "Requested video resolution"
vector 428 baselineTestQoS.hostLVD[25].app[0] DASHBufferLength:vector ETV
attr recordingmode vector
attr title "Video buffer length (in seconds)"
vector 429 baselineTestQoS.hostLVD[25].app[0] DASHVideoPlaybackPointer:vector ETV
attr recordingmode vector
attr title "Video playback pointer"
vector 430 baselineTestQoS.hostLVD[25].app[0] DASHVideoBitrate:vector ETV
attr recordingmode vector
attr title "Requested video bitrate"
vector 431 baselineTestQoS.hostLVD[25].app[0] DASHVideoResolution:vector ETV
attr recordingmode vector
attr title "Requested video resolution"
vector 432 baselineTestQoS.hostVID[36].app[0] DASHVideoPlaybackStatus:vector ETV
attr recordingmode vector
attr title "Video playback status (playing=1, buffering=0)"
vector 433 baselineTestQoS.hostVID[36].ppp[0].ppp txPk:vector(packetBytes) ETV
attr interpolationmode none
attr recordingmode vector(packetBytes)
attr source packetSentToLower
attr title "packets transmitted, packetBytes"
vector 434 baselineTestQoS.router0.ppp[37].ppp rxPkOk:vector(packetBytes) ETV
attr interpolationmode none
attr recordingmode vector(packetBytes)
attr source rxPkOk
attr title "packets received OK, packetBytes"
vector 435 baselineTestQoS.hostVID[44].app[0] DASHVideoPlaybackStatus:vector ETV
attr recordingmode vector
attr title "Video playback status (playing=1, buffering=0)"
vector 436 baselineTestQoS.hostVID[44].ppp[0].ppp txPk:vector(packetBytes) ETV
attr interpolationmode none
attr recordingmode vector(packetBytes)
attr source packetSentToLower
attr title "packets transmitted, packetBytes"
vector 437 baselineTestQoS.router0.ppp[45].ppp rxPkOk:vector(packetBytes) ETV
attr interpolationmode none
attr recordingmode vector(packetBytes)
attr source rxPkOk
attr title "packets received OK, packetBytes"
vector 438 baselineTestQoS.router0.ppp[0].ppp txPk:vector(packetBytes) ETV
attr interpolationmode none
attr recordingmode vector(packetBytes)
attr source packetSentToLower
attr title "packets transmitted, packetBytes"
vector 439 baselineTestQoS.hostSSH[5].ppp[0].ppp txPk:vector(packetBytes) ETV
attr interpolationmode none
attr recordingmode vector(packetBytes)
attr source packetSentToLower
attr title "packets transmitted, packetBytes"
vector 440 baselineTestQoS.router0.ppp[96].ppp rxPkOk:vector(packetBytes) ETV
attr interpolationmode none
attr recordingmode vector(packetBytes)
attr source rxPkOk
attr title "packets received OK, packetBytes"
vector 441 baselineTestQoS.hostVID[34].app[0] DASHVideoPlaybackStatus:vector ETV
attr recordingmode vector
attr title "Video playback status (playing=1, buffering=0)"
vector 442 baselineTestQoS.hostVID[34].ppp[0].ppp txPk:vector(packetBytes) ETV
attr interpolationmode none
attr recordingmode vector(packetBytes)
attr source packetSentToLower
attr title "packets transmitted, packetBytes"
vector 443 baselineTestQoS.router0.ppp[35].ppp rxPkOk:vector(packetBytes) ETV
attr interpolationmode none
attr recordingmode vector(packetBytes)
attr source rxPkOk
attr title "packets received OK, packetBytes"
vector 444 baselineTestQoS.hostVID[30].app[0] DASHVideoPlaybackStatus:vector ETV
attr recordingmode vector
attr title "Video playback status (playing=1, buffering=0)"
vector 445 baselineTestQoS.hostVID[30].ppp[0].ppp txPk:vector(packetBytes) ETV
attr interpolationmode none
attr recordingmode vector(packetBytes)
attr source packetSentToLower
attr title "packets transmitted, packetBytes"
vector 446 baselineTestQoS.router0.ppp[31].ppp rxPkOk:vector(packetBytes) ETV
attr interpolationmode none
attr recordingmode vector(packetBytes)
attr source rxPkOk
attr title "packets received OK, packetBytes"
vector 447 baselineTestQoS.hostVID[52].app[0] DASHVideoPlaybackStatus:vector ETV
attr recordingmode vector
attr title "Video playback status (playing=1, buffering=0)"
vector 448 baselineTestQoS.hostVID[52].ppp[0].ppp txPk:vector(packetBytes) ETV
attr interpolationmode none
attr recordingmode vector(packetBytes)
attr source packetSentToLower
attr title "packets transmitted, packetBytes"
vector 449 baselineTestQoS.router0.ppp[53].ppp rxPkOk:vector(packetBytes) ETV
attr interpolationmode none
attr recordingmode vector(packetBytes)
attr source rxPkOk
attr title "packets received OK, packetBytes"
vector 450 baselineTestQoS.hostSSH[2].ppp[0].ppp txPk:vector(packetBytes) ETV
attr interpolationmode none
attr recordingmode vector(packetBytes)
attr source packetSentToLower
attr title "packets transmitted, packetBytes"
vector 451 baselineTestQoS.router0.ppp[93].ppp rxPkOk:vector(packetBytes) ETV
attr interpolationmode none
attr recordingmode vector(packetBytes)
attr source rxPkOk
attr title "packets received OK, packetBytes"
vector 452 baselineTestQoS.hostLVD[10].app[0] DASHVideoPlaybackStatus:vector ETV
attr recordingmode vector
attr title "Video playback status (playing=1, buffering=0)"
vector 453 baselineTestQoS.hostLVD[10].ppp[0].ppp txPk:vector(packetBytes) ETV
attr interpolationmode none
attr recordingmode vector(packetBytes)
attr source packetSentToLower
attr title "packets transmitted, packetBytes"
vector 454 baselineTestQoS.router0.ppp[68].ppp rxPkOk:vector(packetBytes) ETV
attr interpolationmode none
attr recordingmode vector(packetBytes)
attr source rxPkOk
attr title "packets received OK, packetBytes"
vector 455 baselineTestQoS.serverVIP.ppp[0].ppp txPk:vector(packetBytes) ETV
attr interpolationmode none
attr recordingmode vector(packetBytes)
attr source packetSentToLower
attr title "packets transmitted, packetBytes"
vector 456 baselineTestQoS.router1.ppp[5].ppp rxPkOk:vector(packetBytes) ETV
attr interpolationmode none
attr recordingmode vector(packetBytes)
attr source rxPkOk
attr title "packets received OK, packetBytes"
vector 457 baselineTestQoS.router1.ppp[0].ppp txPk:vector(packetBytes) ETV
attr interpolationmode none
attr recordingmode vector(packetBytes)
attr source packetSentToLower
attr title "packets transmitted, packetBytes"
vector 458 baselineTestQoS.router1.ppp[0].ppp rxPkOk:vector(packetBytes) ETV
attr interpolationmode none
attr recordingmode vector(packetBytes)
attr source rxPkOk
attr title "packets received OK, packetBytes"
vector 459 baselineTestQoS.router1.ppp[1].ppp txPk:vector(packetBytes) ETV
attr interpolationmode none
attr recordingmode vector(packetBytes)
attr source packetSentToLower
attr title "packets transmitted, packetBytes"
vector 460 baselineTestQoS.serverVID.ppp[0].ppp rxPkOk:vector(packetBytes) ETV
attr interpolationmode none
attr recordingmode vector(packetBytes)
attr source rxPkOk
attr title "packets received OK, packetBytes"
vector 461 baselineTestQoS.serverVID.ppp[0].ppp txPk:vector(packetBytes) ETV
attr interpolationmode none
attr recordingmode vector(packetBytes)
attr source packetSentToLower
attr title "packets transmitted, packetBytes"
0	0	0	0
1	0	0	0
2	0	0	0
3	0	0	0
4	0	0	0
5	0	0	0
6	0	0	0
7	0	0	0
8	0	0	0
9	0	0	0
10	0	0	0
11	0	0	0
12	0	0	0
13	0	0	0
14	0	0	0
15	0	0	0
16	0	0	0
17	0	0	0
18	0	0	0
19	0	0	0
20	0	0	0
21	0	0	0
22	0	0	0
23	0	0	0
24	0	0	0
25	0	0	0
26	0	0	0
27	0	0	0
28	0	0	0
29	0	0	0
30	0	0	0
30	124	0.034063494566	1
31	0	0	0
32	0	0	0
33	0	0	0
34	0	0	0
34	114	0.032703760127	1
35	0	0	0
36	0	0	0
36	85	0.011625748428	1
37	0	0	0
38	0	0	0
39	0	0	0
40	0	0	0
41	0	0	0
42	0	0	0
43	0	0	0
44	0	0	0
44	93	0.012192073078	1
45	0	0	0
46	0	0	0
47	0	0	0
48	0	0	0
49	0	0	0
50	0	0	0
51	0	0	0
52	0	0	0
52	134	0.038820442986	1
53	0	0	0
54	0	0	0
55	0	0	0
56	0	0	0
57	0	0	0
58	0	0	0
59	0	0	0
60	0	0	0
61	0	0	0
62	0	0	0
63	0	0	0
64	0	0	0
65	0	0	0
66	0	0	0
67	0	0	0
67	154	0.045153943719	1
68	0	0	0
69	0	0	0
70	0	0	0
71	0	0	0
72	0	0	0
73	0	0	0
74	0	0	0
75	0	0	0
76	0	0	0
77	0	0	0
78	0	0	0
79	0	0	0
80	0	0	0
81	0	0	0
82	0	0	0
83	0	0	0
84	0	0	0
85	0	0	0
86	0	0	0
87	0	0	0
88	0	0	0
89	0	0	0
90	0	0	0
91	0	0	0
92	0	0	0
92	144	0.044805930138	1
93	0	0	0
94	0	0	0
95	0	0	0
95	103	0.022245716495	1
96	0	0	0
97	0	0	0
98	0	0	0
99	0	0	0
100	0	0	0
101	0	0	0
102	0	0	287
103	0	0	360
104	0	0	0
105	0	0	0
106	0	0	359
107	0	0	360
108	0	0	0
109	0	0	0
110	0	0	251
111	0	0	360
112	0	0	0
113	0	0	0
114	0	0	272
115	0	0	360
116	0	0	0
117	0	0	0
118	0	0	397
119	0	0	360
120	0	0	0
121	0	0	0
122	0	0	360
123	0	0	360
124	0	0	0
125	0	0	0
126	0	0	338
127	0	0	360
128	0	0	0
129	0	0	0
130	0	0	338
131	0	0	360
132	0	0	0
133	0	0	0
134	0	0	299
135	0	0	360
136	0	0	0
137	0	0	0
138	0	0	302
139	0	0	360
140	0	0	0
141	0	0	0
142	0	0	339
143	0	0	360
144	0	0	0
145	0	0	0
146	0	0	401
147	0	0	360
148	0	0	0
149	0	0	0
150	0	0	303
151	0	0	360
152	0	0	0
153	0	0	0
154	0	0	382
155	0	0	360
156	0	0	0
157	0	0	0
158	0	0	339
159	0	0	360
160	0	0	0
161	0	0	0
162	0	0	343
163	0	0	360
164	0	0	0
165	0	0	0
166	0	0	271
167	0	0	360
168	0	0	0
169	0	0	0
170	0	0	361
171	0	0	360
172	0	0	0
173	0	0	0
174	0	0	366
175	0	0	360
176	0	0	0
177	0	0	0
178	0	0	288
179	0	0	360
180	0	0	0
181	0	0	0
182	0	0	358
183	0	0	360
184	0	0	0
185	0	0	0
186	0	0	328
187	0	0	360
188	0	0	0
189	0	0	0
190	0	0	372
191	0	0	360
192	0	0	0
193	0	0	0
194	0	0	339
195	0	0	360
196	0	0	0
197	0	0	0
198	0	0	402
199	0	0	360
200	0	0	0
201	0	0	0
202	0	0	343
203	0	0	360
204	0	0	0
205	0	0	0
206	0	0	346
207	0	0	360
208	0	0	0
209	0	0	0
210	0	0	350
211	0	0	360
212	0	0	0
213	0	0	0
214	0	0	371
215	0	0	360
216	0	0	0
217	0	0	0
218	0	0	377
219	0	0	360
220	0	0	0
221	0	0	0
222	0	0	263
223	0	0	360
224	0	0	0
225	0	0	0
226	0	0	423
227	0	0	360
228	0	0	0
229	0	0	0
230	0	0	426
231	0	0	360
232	0	0	0
233	0	0	0
234	0	0	364
235	0	0	360
236	0	0	0
237	0	0	0
238	0	0	274
239	0	0	360
240	0	0	0
241	0	0	0
242	0	0	319
243	0	0	360
244	0	0	0
245	0	0	0
246	0	0	372
247	0	0	360
248	0	0	0
249	0	0	0
250	0	0	328
251	0	0	360
252	0	0	0
253	0	0	0
254	0	0	365
255	0	0	360
256	0	0	0
257	0	0	0
258	0	0	356
259	0	0	360
260	0	0	0
261	0	0	0
262	0	0	212
263	0	0	360
264	0	0	0
265	0	0	0
266	0	0	220
267	0	0	360
268	0	0	0
269	0	0	0
270	0	0	289
271	0	0	360
272	0	0	0
273	0	0	0
274	0	0	341
275	0	0	360
276	0	0	0
277	0	0	0
278	0	0	415
279	0	0	360
280	0	0	0
281	0	0	0
282	0	0	287
283	0	0	360
284	0	0	0
285	0	0	0
286	0	0	265
287	0	0	360
288	0	0	0
289	0	0	0
290	0	0	386
291	0	0	360
292	0	0	0
293	0	0	0
294	0	0	243
295	0	0	360
296	0	0	0
297	0	0	0
298	0	0	315
299	0	0	360
300	0	0	0
301	0	0	0
302	0	0	317
303	0	0	360
304	0	0	0
305	0	0	0
306	0	0	255
307	0	0	360
308	0	0	0
309	0	0	0
310	0	0	368
311	0	0	360
312	0	0	0
313	0	0	0
314	0	0	346
315	0	0	360
316	0	0	0
317	0	0	0
318	0	0	214
319	0	0	360
320	0	0	0
321	0	0	0
322	0	0	355
323	0	0	360
324	0	0	0
325	0	0	0
326	0	0	292
327	0	0	360
328	0	0	0
329	0	0	0
330	0	0	111
331	0	0	240
332	0	0	0
333	0	0	0
334	0	0	112
335	0	0	240
336	0	0	0
337	0	0	0
338	0	0	120
339	0	0	240
340	0	0	0
341	0	0	0
342	0	0	117
343	0	0	240
344	0	0	0
345	0	0	0
346	0	0	85
347	0	0	240
348	0	0	0
349	0	0	0
350	0	0	82
351	0	0	240
352	0	0	0
353	0	0	0
354	0	0	101
355	0	0	240
356	0	0	0
357	0	0	0
358	0	0	88
359	0	0	240
360	0	0	0
361	0	0	0
362	0	0	83
363	0	0	240
364	0	0	0
365	0	0	0
366	0	0	84
367	0	0	240
368	0	0	0
369	0	0	0
370	0	0	111
371	0	0	240
372	0	0	0
373	0	0	0
374	0	0	117
375	0	0	240
376	0	0	0
377	0	0	0
378	0	0	107
379	0	0	240
380	0	0	0
381	0	0	0
382	0	0	118
383	0	0	240
384	0	0	0
385	0	0	0
386	0	0	108
387	0	0	240
388	0	0	0
389	0	0	0
390	0	0	103
391	0	0	240
392	0	0	0
393	0	0	0
394	0	0	100
395	0	0	240
396	0	0	0
397	0	0	0
398	0	0	137
399	0	0	240
400	0	0	0
401	0	0	0
402	0	0	95
403	0	0	240
404	0	0	0
405	0	0	0
406	0	0	80
407	0	0	240
408	0	0	0
409	0	0	0
410	0	0	100
411	0	0	240
412	0	0	0
413	0	0	0
414	0	0	107
415	0	0	240
416	0	0	0
417	0	0	0
418	0	0	107
419	0	0	240
420	0	0	0
421	0	0	0
422	0	0	103
423	0	0	240
424	0	0	0
425	0	0	0
426	0	0	92
427	0	0	240
428	0	0	0
429	0	0	0
430	0	0	101
431	0	0	240
432	85	0.011625748428	0
433	88	0.011625748428	51
434	90	0.011626256428	51
435	93	0.012192073078	0
436	96	0.012192073078	51
437	98	0.012192581078	51
438	100	0.012192581078	51
438	101	0.012196661078	51
438	111	0.022346224495	51
438	122	0.032804268127	51
438	132	0.034164002566	51
438	142	0.038920950986	51
438	152	0.044906438138	51
439	106	0.022245716495	51
440	108	0.022246224495	51
441	114	0.032703760127	0
442	117	0.032703760127	51
443	119	0.032704268127	51
444	124	0.034063494566	0
445	127	0.034063494566	51
446	129	0.034064002566	51
447	134	0.038820442986	0
448	137	0.038820442986	51
449	139	0.038820950986	51
450	147	0.044805930138	51
451	149	0.044806438138	51
452	154	0.045153943719	0
453	157	0.045153943719	51
454	159	0.045154451719	51
455	165	0.050187465688	75
456	167	0.050187625688	75
457	170	0.050287625688	75
458	172	0.052196661078	51
459	174	0.052196661078	51
460	176	0.052196801878	51
461	180	0.052196801878	51

