file 102448 1676981170                                          
version 3
run qoeSlicingTestingBase_R100_Q35_M100_C100-0-20230221-13:05:10-18652
attr configname qoeSlicingTestingBase_R100_Q35_M100_C100
attr datetime 20230221-13:05:10
attr datetimef 20230221-130510
attr experiment qoeSlicingTestingBase_R100_Q35_M100_C100
attr inifile simulations/omnetpp.ini
attr iterationvars ""
attr iterationvarsd ""
attr iterationvarsf ""
attr measurement ""
attr network baselineTestQoS
attr processid 18652
attr repetition 0
attr replication #0
attr resultdir results
attr runnumber 0
attr seedset 0
config image-path ../inet/images
config description "Configuration for qoeSlicingTestingBase_R100_Q35_M100_C100. All five applications. QoS employed. Guarantee Multiplier: 1.0; Ceil multiplier: 1.0"
config extends liteCbaselineTestTokenQoS_base
config *.configurator.config "xmldoc(\"configs/routing/qoeSlicingTestingBase_R100_Q35_M100_C100Routing.xml\")"
config *.nVID 57
config *.nLVD 26
config *.nFDO 7
config *.nSSH 10
config *.nVIP 40
config *.ncVIP 0
config *.router*.ppp[0].queue.typename HtbQueue
config *.router*.ppp[0].queue.numQueues 140
config *.router*.ppp[0].queue.queue[*].typename DropTailQueue
config *.router*.ppp[0].queue.packetCapacity -1
config *.router*.ppp[0].queue.htbHysterisis false
config *.router*.ppp[0].queue.scheduler.adjustHTBTreeValuesForCorectness false
config *.router*.ppp[0].queue.scheduler.checkHTBTreeValuesForCorectness false
config *.router*.ppp[0].queue.htbTreeConfig "xmldoc(\"configs/htbTree/qoeSlicingTestingBase_R100_Q35_M100_C100HTB.xml\")"
config *.router*.ppp[0].queue.classifier.defaultGateIndex 0
config *.router0.ppp[0].queue.classifier.packetFilters "[expr(ipv4.srcAddress.str() =~ \"10.0.0.0\"),expr(ipv4.srcAddress.str() =~ \"10.0.0.4\"),expr(ipv4.srcAddress.str() =~ \"10.0.0.8\"),expr(ipv4.srcAddress.str() =~ \"10.0.0.12\"),expr(ipv4.srcAddress.str() =~ \"10.0.0.16\"),expr(ipv4.srcAddress.str() =~ \"10.0.0.20\"),expr(ipv4.srcAddress.str() =~ \"10.0.0.24\"),expr(ipv4.srcAddress.str() =~ \"10.0.0.28\"),expr(ipv4.srcAddress.str() =~ \"10.0.0.32\"),expr(ipv4.srcAddress.str() =~ \"10.0.0.36\"),expr(ipv4.srcAddress.str() =~ \"10.0.0.40\"),expr(ipv4.srcAddress.str() =~ \"10.0.0.44\"),expr(ipv4.srcAddress.str() =~ \"10.0.0.48\"),expr(ipv4.srcAddress.str() =~ \"10.0.0.52\"),expr(ipv4.srcAddress.str() =~ \"10.0.0.56\"),expr(ipv4.srcAddress.str() =~ \"10.0.0.60\"),expr(ipv4.srcAddress.str() =~ \"10.0.0.64\"),expr(ipv4.srcAddress.str() =~ \"10.0.0.68\"),expr(ipv4.srcAddress.str() =~ \"10.0.0.72\"),expr(ipv4.srcAddress.str() =~ \"10.0.0.76\"),expr(ipv4.srcAddress.str() =~ \"10.0.0.80\"),expr(ipv4.srcAddress.str() =~ \"10.0.0.84\"),expr(ipv4.srcAddress.str() =~ \"10.0.0.88\"),expr(ipv4.srcAddress.str() =~ \"10.0.0.92\"),expr(ipv4.srcAddress.str() =~ \"10.0.0.96\"),expr(ipv4.srcAddress.str() =~ \"10.0.0.100\"),expr(ipv4.srcAddress.str() =~ \"10.0.0.104\"),expr(ipv4.srcAddress.str() =~ \"10.0.0.108\"),expr(ipv4.srcAddress.str() =~ \"10.0.0.112\"),expr(ipv4.srcAddress.str() =~ \"10.0.0.116\"),expr(ipv4.srcAddress.str() =~ \"10.0.0.120\"),expr(ipv4.srcAddress.str() =~ \"10.0.0.124\"),expr(ipv4.srcAddress.str() =~ \"10.0.0.128\"),expr(ipv4.srcAddress.str() =~ \"10.0.0.132\"),expr(ipv4.srcAddress.str() =~ \"10.0.0.136\"),expr(ipv4.srcAddress.str() =~ \"10.0.0.140\"),expr(ipv4.srcAddress.str() =~ \"10.0.0.144\"),expr(ipv4.srcAddress.str() =~ \"10.0.0.148\"),expr(ipv4.srcAddress.str() =~ \"10.0.0.152\"),expr(ipv4.srcAddress.str() =~ \"10.0.0.156\"),expr(ipv4.srcAddress.str() =~ \"10.0.0.160\"),expr(ipv4.srcAddress.str() =~ \"10.0.0.164\"),expr(ipv4.srcAddress.str() =~ \"10.0.0.168\"),expr(ipv4.srcAddress.str() =~ \"10.0.0.172\"),expr(ipv4.srcAddress.str() =~ \"10.0.0.176\"),expr(ipv4.srcAddress.str() =~ \"10.0.0.180\"),expr(ipv4.srcAddress.str() =~ \"10.0.0.184\"),expr(ipv4.srcAddress.str() =~ \"10.0.0.188\"),expr(ipv4.srcAddress.str() =~ \"10.0.0.192\"),expr(ipv4.srcAddress.str() =~ \"10.0.0.196\"),expr(ipv4.srcAddress.str() =~ \"10.0.0.200\"),expr(ipv4.srcAddress.str() =~ \"10.0.0.204\"),expr(ipv4.srcAddress.str() =~ \"10.0.0.208\"),expr(ipv4.srcAddress.str() =~ \"10.0.0.212\"),expr(ipv4.srcAddress.str() =~ \"10.0.0.216\"),expr(ipv4.srcAddress.str() =~ \"10.0.0.220\"),expr(ipv4.srcAddress.str() =~ \"10.0.0.224\"),expr(ipv4.srcAddress.str() =~ \"10.1.0.0\"),expr(ipv4.srcAddress.str() =~ \"10.1.0.4\"),expr(ipv4.srcAddress.str() =~ \"10.1.0.8\"),expr(ipv4.srcAddress.str() =~ \"10.1.0.12\"),expr(ipv4.srcAddress.str() =~ \"10.1.0.16\"),expr(ipv4.srcAddress.str() =~ \"10.1.0.20\"),expr(ipv4.srcAddress.str() =~ \"10.1.0.24\"),expr(ipv4.srcAddress.str() =~ \"10.1.0.28\"),expr(ipv4.srcAddress.str() =~ \"10.1.0.32\"),expr(ipv4.srcAddress.str() =~ \"10.1.0.36\"),expr(ipv4.srcAddress.str() =~ \"10.1.0.40\"),expr(ipv4.srcAddress.str() =~ \"10.1.0.44\"),expr(ipv4.srcAddress.str() =~ \"10.1.0.48\"),expr(ipv4.srcAddress.str() =~ \"10.1.0.52\"),expr(ipv4.srcAddress.str() =~ \"10.1.0.56\"),expr(ipv4.srcAddress.str() =~ \"10.1.0.60\"),expr(ipv4.srcAddress.str() =~ \"10.1.0.64\"),expr(ipv4.srcAddress.str() =~ \"10.1.0.68\"),expr(ipv4.srcAddress.str() =~ \"10.1.0.72\"),expr(ipv4.srcAddress.str() =~ \"10.1.0.76\"),expr(ipv4.srcAddress.str() =~ \"10.1.0.80\"),expr(ipv4.srcAddress.str() =~ \"10.1.0.84\"),expr(ipv4.srcAddress.str() =~ \"10.1.0.88\"),expr(ipv4.srcAddress.str() =~ \"10.1.0.92\"),expr(ipv4.srcAddress.str() =~ \"10.1.0.96\"),expr(ipv4.srcAddress.str() =~ \"10.1.0.100\"),expr(ipv4.srcAddress.str() =~ \"10.2.0.0\"),expr(ipv4.srcAddress.str() =~ \"10.2.0.4\"),expr(ipv4.srcAddress.str() =~ \"10.2.0.8\"),expr(ipv4.srcAddress.str() =~ \"10.2.0.12\"),expr(ipv4.srcAddress.str() =~ \"10.2.0.16\"),expr(ipv4.srcAddress.str() =~ \"10.2.0.20\"),expr(ipv4.srcAddress.str() =~ \"10.2.0.24\"),expr(ipv4.srcAddress.str() =~ \"10.3.0.0\"),expr(ipv4.srcAddress.str() =~ \"10.3.0.4\"),expr(ipv4.srcAddress.str() =~ \"10.3.0.8\"),expr(ipv4.srcAddress.str() =~ \"10.3.0.12\"),expr(ipv4.srcAddress.str() =~ \"10.3.0.16\"),expr(ipv4.srcAddress.str() =~ \"10.3.0.20\"),expr(ipv4.srcAddress.str() =~ \"10.3.0.24\"),expr(ipv4.srcAddress.str() =~ \"10.3.0.28\"),expr(ipv4.srcAddress.str() =~ \"10.3.0.32\"),expr(ipv4.srcAddress.str() =~ \"10.3.0.36\"),expr(ipv4.srcAddress.str() =~ \"10.3.0.40\"),expr(ipv4.srcAddress.str() =~ \"10.3.0.44\"),expr(ipv4.srcAddress.str() =~ \"10.3.0.48\"),expr(ipv4.srcAddress.str() =~ \"10.3.0.52\"),expr(ipv4.srcAddress.str() =~ \"10.3.0.56\"),expr(ipv4.srcAddress.str() =~ \"10.3.0.60\"),expr(ipv4.srcAddress.str() =~ \"10.3.0.64\"),expr(ipv4.srcAddress.str() =~ \"10.3.0.68\"),expr(ipv4.srcAddress.str() =~ \"10.3.0.72\"),expr(ipv4.srcAddress.str() =~ \"10.3.0.76\"),expr(ipv4.srcAddress.str() =~ \"10.3.0.80\"),expr(ipv4.srcAddress.str() =~ \"10.3.0.84\"),expr(ipv4.srcAddress.str() =~ \"10.3.0.88\"),expr(ipv4.srcAddress.str() =~ \"10.3.0.92\"),expr(ipv4.srcAddress.str() =~ \"10.3.0.96\"),expr(ipv4.srcAddress.str() =~ \"10.3.0.100\"),expr(ipv4.srcAddress.str() =~ \"10.3.0.104\"),expr(ipv4.srcAddress.str() =~ \"10.3.0.108\"),expr(ipv4.srcAddress.str() =~ \"10.3.0.112\"),expr(ipv4.srcAddress.str() =~ \"10.3.0.116\"),expr(ipv4.srcAddress.str() =~ \"10.3.0.120\"),expr(ipv4.srcAddress.str() =~ \"10.3.0.124\"),expr(ipv4.srcAddress.str() =~ \"10.3.0.128\"),expr(ipv4.srcAddress.str() =~ \"10.3.0.132\"),expr(ipv4.srcAddress.str() =~ \"10.3.0.136\"),expr(ipv4.srcAddress.str() =~ \"10.3.0.140\"),expr(ipv4.srcAddress.str() =~ \"10.3.0.144\"),expr(ipv4.srcAddress.str() =~ \"10.3.0.148\"),expr(ipv4.srcAddress.str() =~ \"10.3.0.152\"),expr(ipv4.srcAddress.str() =~ \"10.3.0.156\"),expr(ipv4.srcAddress.str() =~ \"10.4.0.0\"),expr(ipv4.srcAddress.str() =~ \"10.4.0.4\"),expr(ipv4.srcAddress.str() =~ \"10.4.0.8\"),expr(ipv4.srcAddress.str() =~ \"10.4.0.12\"),expr(ipv4.srcAddress.str() =~ \"10.4.0.16\"),expr(ipv4.srcAddress.str() =~ \"10.4.0.20\"),expr(ipv4.srcAddress.str() =~ \"10.4.0.24\"),expr(ipv4.srcAddress.str() =~ \"10.4.0.28\"),expr(ipv4.srcAddress.str() =~ \"10.4.0.32\"),expr(ipv4.srcAddress.str() =~ \"10.4.0.36\")]"
config *.router1.ppp[0].queue.classifier.packetFilters "[expr(ipv4.destAddress.str() =~ \"10.0.0.0\"),expr(ipv4.destAddress.str() =~ \"10.0.0.4\"),expr(ipv4.destAddress.str() =~ \"10.0.0.8\"),expr(ipv4.destAddress.str() =~ \"10.0.0.12\"),expr(ipv4.destAddress.str() =~ \"10.0.0.16\"),expr(ipv4.destAddress.str() =~ \"10.0.0.20\"),expr(ipv4.destAddress.str() =~ \"10.0.0.24\"),expr(ipv4.destAddress.str() =~ \"10.0.0.28\"),expr(ipv4.destAddress.str() =~ \"10.0.0.32\"),expr(ipv4.destAddress.str() =~ \"10.0.0.36\"),expr(ipv4.destAddress.str() =~ \"10.0.0.40\"),expr(ipv4.destAddress.str() =~ \"10.0.0.44\"),expr(ipv4.destAddress.str() =~ \"10.0.0.48\"),expr(ipv4.destAddress.str() =~ \"10.0.0.52\"),expr(ipv4.destAddress.str() =~ \"10.0.0.56\"),expr(ipv4.destAddress.str() =~ \"10.0.0.60\"),expr(ipv4.destAddress.str() =~ \"10.0.0.64\"),expr(ipv4.destAddress.str() =~ \"10.0.0.68\"),expr(ipv4.destAddress.str() =~ \"10.0.0.72\"),expr(ipv4.destAddress.str() =~ \"10.0.0.76\"),expr(ipv4.destAddress.str() =~ \"10.0.0.80\"),expr(ipv4.destAddress.str() =~ \"10.0.0.84\"),expr(ipv4.destAddress.str() =~ \"10.0.0.88\"),expr(ipv4.destAddress.str() =~ \"10.0.0.92\"),expr(ipv4.destAddress.str() =~ \"10.0.0.96\"),expr(ipv4.destAddress.str() =~ \"10.0.0.100\"),expr(ipv4.destAddress.str() =~ \"10.0.0.104\"),expr(ipv4.destAddress.str() =~ \"10.0.0.108\"),expr(ipv4.destAddress.str() =~ \"10.0.0.112\"),expr(ipv4.destAddress.str() =~ \"10.0.0.116\"),expr(ipv4.destAddress.str() =~ \"10.0.0.120\"),expr(ipv4.destAddress.str() =~ \"10.0.0.124\"),expr(ipv4.destAddress.str() =~ \"10.0.0.128\"),expr(ipv4.destAddress.str() =~ \"10.0.0.132\"),expr(ipv4.destAddress.str() =~ \"10.0.0.136\"),expr(ipv4.destAddress.str() =~ \"10.0.0.140\"),expr(ipv4.destAddress.str() =~ \"10.0.0.144\"),expr(ipv4.destAddress.str() =~ \"10.0.0.148\"),expr(ipv4.destAddress.str() =~ \"10.0.0.152\"),expr(ipv4.destAddress.str() =~ \"10.0.0.156\"),expr(ipv4.destAddress.str() =~ \"10.0.0.160\"),expr(ipv4.destAddress.str() =~ \"10.0.0.164\"),expr(ipv4.destAddress.str() =~ \"10.0.0.168\"),expr(ipv4.destAddress.str() =~ \"10.0.0.172\"),expr(ipv4.destAddress.str() =~ \"10.0.0.176\"),expr(ipv4.destAddress.str() =~ \"10.0.0.180\"),expr(ipv4.destAddress.str() =~ \"10.0.0.184\"),expr(ipv4.destAddress.str() =~ \"10.0.0.188\"),expr(ipv4.destAddress.str() =~ \"10.0.0.192\"),expr(ipv4.destAddress.str() =~ \"10.0.0.196\"),expr(ipv4.destAddress.str() =~ \"10.0.0.200\"),expr(ipv4.destAddress.str() =~ \"10.0.0.204\"),expr(ipv4.destAddress.str() =~ \"10.0.0.208\"),expr(ipv4.destAddress.str() =~ \"10.0.0.212\"),expr(ipv4.destAddress.str() =~ \"10.0.0.216\"),expr(ipv4.destAddress.str() =~ \"10.0.0.220\"),expr(ipv4.destAddress.str() =~ \"10.0.0.224\"),expr(ipv4.destAddress.str() =~ \"10.1.0.0\"),expr(ipv4.destAddress.str() =~ \"10.1.0.4\"),expr(ipv4.destAddress.str() =~ \"10.1.0.8\"),expr(ipv4.destAddress.str() =~ \"10.1.0.12\"),expr(ipv4.destAddress.str() =~ \"10.1.0.16\"),expr(ipv4.destAddress.str() =~ \"10.1.0.20\"),expr(ipv4.destAddress.str() =~ \"10.1.0.24\"),expr(ipv4.destAddress.str() =~ \"10.1.0.28\"),expr(ipv4.destAddress.str() =~ \"10.1.0.32\"),expr(ipv4.destAddress.str() =~ \"10.1.0.36\"),expr(ipv4.destAddress.str() =~ \"10.1.0.40\"),expr(ipv4.destAddress.str() =~ \"10.1.0.44\"),expr(ipv4.destAddress.str() =~ \"10.1.0.48\"),expr(ipv4.destAddress.str() =~ \"10.1.0.52\"),expr(ipv4.destAddress.str() =~ \"10.1.0.56\"),expr(ipv4.destAddress.str() =~ \"10.1.0.60\"),expr(ipv4.destAddress.str() =~ \"10.1.0.64\"),expr(ipv4.destAddress.str() =~ \"10.1.0.68\"),expr(ipv4.destAddress.str() =~ \"10.1.0.72\"),expr(ipv4.destAddress.str() =~ \"10.1.0.76\"),expr(ipv4.destAddress.str() =~ \"10.1.0.80\"),expr(ipv4.destAddress.str() =~ \"10.1.0.84\"),expr(ipv4.destAddress.str() =~ \"10.1.0.88\"),expr(ipv4.destAddress.str() =~ \"10.1.0.92\"),expr(ipv4.destAddress.str() =~ \"10.1.0.96\"),expr(ipv4.destAddress.str() =~ \"10.1.0.100\"),expr(ipv4.destAddress.str() =~ \"10.2.0.0\"),expr(ipv4.destAddress.str() =~ \"10.2.0.4\"),expr(ipv4.destAddress.str() =~ \"10.2.0.8\"),expr(ipv4.destAddress.str() =~ \"10.2.0.12\"),expr(ipv4.destAddress.str() =~ \"10.2.0.16\"),expr(ipv4.destAddress.str() =~ \"10.2.0.20\"),expr(ipv4.destAddress.str() =~ \"10.2.0.24\"),expr(ipv4.destAddress.str() =~ \"10.3.0.0\"),expr(ipv4.destAddress.str() =~ \"10.3.0.4\"),expr(ipv4.destAddress.str() =~ \"10.3.0.8\"),expr(ipv4.destAddress.str() =~ \"10.3.0.12\"),expr(ipv4.destAddress.str() =~ \"10.3.0.16\"),expr(ipv4.destAddress.str() =~ \"10.3.0.20\"),expr(ipv4.destAddress.str() =~ \"10.3.0.24\"),expr(ipv4.destAddress.str() =~ \"10.3.0.28\"),expr(ipv4.destAddress.str() =~ \"10.3.0.32\"),expr(ipv4.destAddress.str() =~ \"10.3.0.36\"),expr(ipv4.destAddress.str() =~ \"10.3.0.40\"),expr(ipv4.destAddress.str() =~ \"10.3.0.44\"),expr(ipv4.destAddress.str() =~ \"10.3.0.48\"),expr(ipv4.destAddress.str() =~ \"10.3.0.52\"),expr(ipv4.destAddress.str() =~ \"10.3.0.56\"),expr(ipv4.destAddress.str() =~ \"10.3.0.60\"),expr(ipv4.destAddress.str() =~ \"10.3.0.64\"),expr(ipv4.destAddress.str() =~ \"10.3.0.68\"),expr(ipv4.destAddress.str() =~ \"10.3.0.72\"),expr(ipv4.destAddress.str() =~ \"10.3.0.76\"),expr(ipv4.destAddress.str() =~ \"10.3.0.80\"),expr(ipv4.destAddress.str() =~ \"10.3.0.84\"),expr(ipv4.destAddress.str() =~ \"10.3.0.88\"),expr(ipv4.destAddress.str() =~ \"10.3.0.92\"),expr(ipv4.destAddress.str() =~ \"10.3.0.96\"),expr(ipv4.destAddress.str() =~ \"10.3.0.100\"),expr(ipv4.destAddress.str() =~ \"10.3.0.104\"),expr(ipv4.destAddress.str() =~ \"10.3.0.108\"),expr(ipv4.destAddress.str() =~ \"10.3.0.112\"),expr(ipv4.destAddress.str() =~ \"10.3.0.116\"),expr(ipv4.destAddress.str() =~ \"10.3.0.120\"),expr(ipv4.destAddress.str() =~ \"10.3.0.124\"),expr(ipv4.destAddress.str() =~ \"10.3.0.128\"),expr(ipv4.destAddress.str() =~ \"10.3.0.132\"),expr(ipv4.destAddress.str() =~ \"10.3.0.136\"),expr(ipv4.destAddress.str() =~ \"10.3.0.140\"),expr(ipv4.destAddress.str() =~ \"10.3.0.144\"),expr(ipv4.destAddress.str() =~ \"10.3.0.148\"),expr(ipv4.destAddress.str() =~ \"10.3.0.152\"),expr(ipv4.destAddress.str() =~ \"10.3.0.156\"),expr(ipv4.destAddress.str() =~ \"10.4.0.0\"),expr(ipv4.destAddress.str() =~ \"10.4.0.4\"),expr(ipv4.destAddress.str() =~ \"10.4.0.8\"),expr(ipv4.destAddress.str() =~ \"10.4.0.12\"),expr(ipv4.destAddress.str() =~ \"10.4.0.16\"),expr(ipv4.destAddress.str() =~ \"10.4.0.20\"),expr(ipv4.destAddress.str() =~ \"10.4.0.24\"),expr(ipv4.destAddress.str() =~ \"10.4.0.28\"),expr(ipv4.destAddress.str() =~ \"10.4.0.32\"),expr(ipv4.destAddress.str() =~ \"10.4.0.36\")]"
config **.connFIX0.datarate 100000000bps
config **.connFIX0.delay 40ms
config description "All five applications - base configuration without any resource allocation"
config network baselineTestQoS
config sim-time-limit 280s
config output-vector-file results/qoeSlicingTestingBase_R100_Q35_M100_C100/qoeSlicingTestingBase_R100_Q35_M100_C100-0.vec
config output-scalar-file results/qoeSlicingTestingBase_R100_Q35_M100_C100/qoeSlicingTestingBase_R100_Q35_M100_C100-0.sca
config **.crcMode "\"computed\""
config *.host*.numApps 1
config *.hostFDO[*].hasTcp true
config *.hostFDO[*].app[0].typename improved5gns.apps.TcpFileDownloadApp
config *.hostFDO[*].app[0].localAddress "\"\""
config *.hostFDO[*].app[0].localPort -1
config *.hostFDO[*].app[0].connectAddress "\"serverFDO\""
config *.hostFDO[*].app[0].connectPort 1042
config *.hostFDO[*].app[0].startTime uniform(0.01s,1s)
config *.hostFDO[*].app[0].stopTime -1s
config *.hostFDO[*].app[0].numRequestsPerSession 1
config *.hostFDO[*].app[0].requestLength 800B
config *.hostFDO[*].app[0].replyLength 10000KiB
config *.hostFDO[*].app[0].thinkTime 0.01s
config *.hostFDO[*].app[0].idleInterval 1s
config *.hostFDO[*].app[0].reconnectInterval 1s
config *.hostFDO[*].app[0].stopOperationExtraTime -1s
config *.hostFDO[*].app[0].stopOperationTimeout 2s
config *.serverFDO.hasTcp true
config *.serverFDO.numApps 1
config *.serverFDO.app[0].typename TcpGenericServerApp
config *.serverFDO.app[0].localAddress "\"\""
config *.serverFDO.app[0].localPort 1042
config *.serverFDO.app[0].replyDelay 0s
config *.serverFDO.app[0].stopOperationExtraTime -1s
config *.serverFDO.app[0].stopOperationTimeout 2s
config **.hostVID[*].hasTcp true
config **.hostVID[*].app[0].typename improved5gns.apps.TCPVideoStreamCliAppV2lite
config **.hostVID[*].app[0].localAddress "\"\""
config **.hostVID[*].app[0].localPort -1
config **.hostVID[*].app[0].connectAddress "\"serverVID\""
config **.hostVID[*].app[0].connectPort 1042
config **.hostVID[*].app[0].dataTransferMode "\"object\""
config **.hostVID[*].app[0].startTime uniform(0.01s,1s)
config **.hostVID[*].app[0].stopTime -1s
config **.hostVID[*].app[0].idleInterval 1s
config **.hostVID[*].app[0].requestLength 200B
config **.hostVID[*].app[0].reconnectInterval 1s
config **.hostVID[*].app[0].numRequestsPerSession 1
config **.hostVID[*].app[0].thinkTime 1s
config **.hostVID[*].app[0].video_resolution "\"360 480 720 1080\""
config **.hostVID[*].app[0].manifest_size 100000
config **.hostVID[*].app[0].video_buffer_max_length 30s
config **.hostVID[*].app[0].video_duration int(uniform(120s,200s))
config **.hostVID[*].app[0].segment_length 5s
config **.hostVID[*].app[0].useFlexibleBitrate "\"flexible\""
config *.serverVID.hasTcp true
config *.serverVID.numApps 1
config *.serverVID.app[0].typename TcpGenericServerApp
config *.serverVID.app[0].localAddress "\"\""
config *.serverVID.app[0].localPort 1042
config *.serverVID.app[0].replyDelay 0s
config *.serverVID.app[0].stopOperationExtraTime -1s
config *.serverVID.app[0].stopOperationTimeout 2s
config **.hostLVD[*].hasTcp true
config **.hostLVD[*].app[0].typename improved5gns.apps.TCPLiveVideoStreamCliAppLite
config **.hostLVD[*].app[0].localAddress "\"\""
config **.hostLVD[*].app[0].localPort -1
config **.hostLVD[*].app[0].connectAddress "\"serverLVD\""
config **.hostLVD[*].app[0].connectPort 1043
config **.hostLVD[*].app[0].dataTransferMode "\"object\""
config **.hostLVD[*].app[0].startTime uniform(0.01s,1s)
config **.hostLVD[*].app[0].stopTime -1s
config **.hostLVD[*].app[0].idleInterval 1s
config **.hostLVD[*].app[0].requestLength 200B
config **.hostLVD[*].app[0].reconnectInterval 1s
config **.hostLVD[*].app[0].numRequestsPerSession 1
config **.hostLVD[*].app[0].thinkTime 1s
config **.hostLVD[*].app[0].video_resolution "\"240 360 480 720 1080\""
config **.hostLVD[*].app[0].manifest_size 100000
config **.hostLVD[*].app[0].video_buffer_max_length 6s
config **.hostLVD[*].app[0].video_duration int(uniform(40s,70s))
config **.hostLVD[*].app[0].segment_length 1s
config **.hostLVD[*].app[0].useFlexibleBitrate "\"flexible\""
config **.hostLVD[*].app[0].video_type "\"live\""
config **.hostLVD[*].app[0].delay_threshold 4
config **.hostLVD[*].app[0].speedup_rate 1.05
config *.serverLVD.hasTcp true
config *.serverLVD.numApps 1
config *.serverLVD.app[0].typename TcpGenericServerApp
config *.serverLVD.app[0].localAddress "\"\""
config *.serverLVD.app[0].localPort 1043
config *.serverLVD.app[0].replyDelay 0s
config *.serverLVD.app[0].stopOperationExtraTime -1s
config *.serverLVD.app[0].stopOperationTimeout 2s
config **.hostSSH[*].hasTcp true
config **.hostSSH[*].app[0].typename improved5gns.apps.TcpSimpleSshAppV2lite
config **.hostSSH[*].app[0].localAddress "\"\""
config **.hostSSH[*].app[0].localPort -1
config **.hostSSH[*].app[0].connectAddress "\"serverSSH\""
config **.hostSSH[*].app[0].connectPort 22
config **.hostSSH[*].app[0].startTime uniform(0.01s,1s)
config **.hostSSH[*].app[0].stopTime -1s
config **.hostSSH[*].app[0].numCommands 1
config **.hostSSH[*].app[0].commandLength 10B
config **.hostSSH[*].app[0].keyPressDelay 0.05s
config **.hostSSH[*].app[0].commandOutputLength 500B
config **.hostSSH[*].app[0].thinkTime 1s
config **.hostSSH[*].app[0].idleInterval 1s
config **.hostSSH[*].app[0].reconnectInterval 1s
config **.hostSSH[*].app[0].stopOperationExtraTime -1s
config **.hostSSH[*].app[0].stopOperationTimeout 2s
config *.serverSSH.hasTcp true
config *.serverSSH.numApps 1
config *.serverSSH.app[*].typename TcpGenericServerApp
config *.serverSSH.app[*].localAddress "\"\""
config *.serverSSH.app[*].localPort 22
config *.serverSSH.app[*].replyDelay 0s
config *.serverSSH.app[*].stopOperationExtraTime -1s
config *.serverSSH.app[*].stopOperationTimeout 2s
config **.hostVIP[*].hasUdp true
config **.hostVIP[*].app[0].typename SimpleVoipReceiver
config **.hostVIP[*].app[0].localPort 2000
config **.hostVIP[*].app[0].emodelIe 5
config **.hostVIP[*].app[0].emodelBpl 10
config **.hostVIP[*].app[0].emodelA 5
config **.hostVIP[*].app[0].emodelRo 93.2
config **.hostVIP[*].app[0].playoutDelay 20ms
config **.hostVIP[*].app[0].adaptivePlayoutDelay false
config **.hostVIP[*].app[0].bufferSpace 20
config **.hostVIP[*].app[0].mosSpareTime 1s
config **.serverVIP.hasUdp true
config **.serverVIP.numApps parent.nVIP
config **.serverVIP.app[*].typename SimpleVoipSender
config **.serverVIP.app[*].localPort -1
config **.serverVIP.app[*].destPort 2000
config **.serverVIP.app[*].destAddress "\"hostVIP[\" + string(index) + \"]\""
config **.serverVIP.app[*].talkPacketSize 40B
config **.serverVIP.app[*].talkspurtDuration "weibull(1.423s, 0.824s)"
config **.serverVIP.app[*].silenceDuration "weibull(0.899s, 1.089s)"
config **.serverVIP.app[*].packetizationInterval 20ms
config **.serverVIP.app[*].startTime uniform(0.01s,1s)
config **.serverVIP.app[*].stopTime -1s
config **.hostcVIP[*].hasUdp true
config **.hostcVIP[*].app[0].typename improved5gns.apps.SimpleVoipReceiverCustom
config **.hostcVIP[*].app[0].localPort 2000
config **.hostcVIP[*].app[0].emodelIe 5
config **.hostcVIP[*].app[0].emodelBpl 10
config **.hostcVIP[*].app[0].emodelA 5
config **.hostcVIP[*].app[0].emodelRo 93.2
config **.hostcVIP[*].app[0].playoutDelay 20ms
config **.hostcVIP[*].app[0].adaptivePlayoutDelay false
config **.hostcVIP[*].app[0].bufferSpace 20
config **.hostcVIP[*].app[0].mosSpareTime 1s
config **.servercVIP.hasUdp true
config **.servercVIP.numApps parent.ncVIP
config **.servercVIP.app[*].typename improved5gns.apps.SimpleVoipSenderCustom
config **.servercVIP.app[*].localPort -1
config **.servercVIP.app[*].destPort 2000
config **.servercVIP.app[*].destAddress "\"hostcVIP[\" + string(index) + \"]\""
config **.servercVIP.app[*].talkPacketSize 40B
config **.servercVIP.app[*].talkspurtDuration "weibull(1.423s, 0.824s)"
config **.servercVIP.app[*].silenceDuration "weibull(0.899s, 1.089s)"
config **.servercVIP.app[*].packetizationInterval 2ms
config **.servercVIP.app[*].startTime uniform(0.01s,1s)
config **.servercVIP.app[*].stopTime -1s
config sim-time-limit 250s
config num-rngs 1
config seed-0-mt 5
config output-scalar-file-append false
config record-eventlog false
config *.visualizer.*.interfaceTableVisualizer.displayInterfaceTables true
config **.tcp.typename Tcp
config **.udp.typename Udp
config **.packetCapacity 500
config **.tcp.advertisedWindow 65535
config **.tcp.delayedAcksEnabled false
config **.tcp.nagleEnabled true
config **.tcp.limitedTransmitEnabled false
config **.tcp.increasedIWEnabled false
config **.tcp.sackSupport false
config **.tcp.windowScalingSupport false
config **.tcp.timestampSupport false
config **.tcp.mss 1452
config **.tcp.tcpAlgorithmClass "\"TcpReno\""
config **.tcp.*.*.vector-recording true
config **.tcp.*.rtt.result-recording-modes +vector
config **.tcp.*.*.result-recording-modes -vector
config **.host*.app*.*.vector-recording true
config **.ppp.*xPk*.vector-recording true
config **.vector-recording false

vector 0 baselineTestQoS.hostVID[0].app[0] numActiveSessions:vector ETV
attr interpolationmode sample-hold
attr recordingmode vector
attr source sum(connect)
attr title "number of active sessions"
vector 1 baselineTestQoS.hostVID[1].app[0] numActiveSessions:vector ETV
attr interpolationmode sample-hold
attr recordingmode vector
attr source sum(connect)
attr title "number of active sessions"
vector 2 baselineTestQoS.hostVID[2].app[0] numActiveSessions:vector ETV
attr interpolationmode sample-hold
attr recordingmode vector
attr source sum(connect)
attr title "number of active sessions"
vector 3 baselineTestQoS.hostVID[3].app[0] numActiveSessions:vector ETV
attr interpolationmode sample-hold
attr recordingmode vector
attr source sum(connect)
attr title "number of active sessions"
vector 4 baselineTestQoS.hostVID[4].app[0] numActiveSessions:vector ETV
attr interpolationmode sample-hold
attr recordingmode vector
attr source sum(connect)
attr title "number of active sessions"
vector 5 baselineTestQoS.hostVID[5].app[0] numActiveSessions:vector ETV
attr interpolationmode sample-hold
attr recordingmode vector
attr source sum(connect)
attr title "number of active sessions"
vector 6 baselineTestQoS.hostVID[6].app[0] numActiveSessions:vector ETV
attr interpolationmode sample-hold
attr recordingmode vector
attr source sum(connect)
attr title "number of active sessions"
vector 7 baselineTestQoS.hostVID[7].app[0] numActiveSessions:vector ETV
attr interpolationmode sample-hold
attr recordingmode vector
attr source sum(connect)
attr title "number of active sessions"
vector 8 baselineTestQoS.hostVID[8].app[0] numActiveSessions:vector ETV
attr interpolationmode sample-hold
attr recordingmode vector
attr source sum(connect)
attr title "number of active sessions"
vector 9 baselineTestQoS.hostVID[9].app[0] numActiveSessions:vector ETV
attr interpolationmode sample-hold
attr recordingmode vector
attr source sum(connect)
attr title "number of active sessions"
vector 10 baselineTestQoS.hostVID[10].app[0] numActiveSessions:vector ETV
attr interpolationmode sample-hold
attr recordingmode vector
attr source sum(connect)
attr title "number of active sessions"
vector 11 baselineTestQoS.hostVID[11].app[0] numActiveSessions:vector ETV
attr interpolationmode sample-hold
attr recordingmode vector
attr source sum(connect)
attr title "number of active sessions"
vector 12 baselineTestQoS.hostVID[12].app[0] numActiveSessions:vector ETV
attr interpolationmode sample-hold
attr recordingmode vector
attr source sum(connect)
attr title "number of active sessions"
vector 13 baselineTestQoS.hostVID[13].app[0] numActiveSessions:vector ETV
attr interpolationmode sample-hold
attr recordingmode vector
attr source sum(connect)
attr title "number of active sessions"
vector 14 baselineTestQoS.hostVID[14].app[0] numActiveSessions:vector ETV
attr interpolationmode sample-hold
attr recordingmode vector
attr source sum(connect)
attr title "number of active sessions"
vector 15 baselineTestQoS.hostVID[15].app[0] numActiveSessions:vector ETV
attr interpolationmode sample-hold
attr recordingmode vector
attr source sum(connect)
attr title "number of active sessions"
vector 16 baselineTestQoS.hostVID[16].app[0] numActiveSessions:vector ETV
attr interpolationmode sample-hold
attr recordingmode vector
attr source sum(connect)
attr title "number of active sessions"
vector 17 baselineTestQoS.hostVID[17].app[0] numActiveSessions:vector ETV
attr interpolationmode sample-hold
attr recordingmode vector
attr source sum(connect)
attr title "number of active sessions"
vector 18 baselineTestQoS.hostVID[18].app[0] numActiveSessions:vector ETV
attr interpolationmode sample-hold
attr recordingmode vector
attr source sum(connect)
attr title "number of active sessions"
vector 19 baselineTestQoS.hostVID[19].app[0] numActiveSessions:vector ETV
attr interpolationmode sample-hold
attr recordingmode vector
attr source sum(connect)
attr title "number of active sessions"
vector 20 baselineTestQoS.hostVID[20].app[0] numActiveSessions:vector ETV
attr interpolationmode sample-hold
attr recordingmode vector
attr source sum(connect)
attr title "number of active sessions"
vector 21 baselineTestQoS.hostVID[21].app[0] numActiveSessions:vector ETV
attr interpolationmode sample-hold
attr recordingmode vector
attr source sum(connect)
attr title "number of active sessions"
vector 22 baselineTestQoS.hostVID[22].app[0] numActiveSessions:vector ETV
attr interpolationmode sample-hold
attr recordingmode vector
attr source sum(connect)
attr title "number of active sessions"
vector 23 baselineTestQoS.hostVID[23].app[0] numActiveSessions:vector ETV
attr interpolationmode sample-hold
attr recordingmode vector
attr source sum(connect)
attr title "number of active sessions"
vector 24 baselineTestQoS.hostVID[24].app[0] numActiveSessions:vector ETV
attr interpolationmode sample-hold
attr recordingmode vector
attr source sum(connect)
attr title "number of active sessions"
vector 25 baselineTestQoS.hostVID[25].app[0] numActiveSessions:vector ETV
attr interpolationmode sample-hold
attr recordingmode vector
attr source sum(connect)
attr title "number of active sessions"
vector 26 baselineTestQoS.hostVID[26].app[0] numActiveSessions:vector ETV
attr interpolationmode sample-hold
attr recordingmode vector
attr source sum(connect)
attr title "number of active sessions"
vector 27 baselineTestQoS.hostVID[27].app[0] numActiveSessions:vector ETV
attr interpolationmode sample-hold
attr recordingmode vector
attr source sum(connect)
attr title "number of active sessions"
vector 28 baselineTestQoS.hostVID[28].app[0] numActiveSessions:vector ETV
attr interpolationmode sample-hold
attr recordingmode vector
attr source sum(connect)
attr title "number of active sessions"
vector 29 baselineTestQoS.hostVID[29].app[0] numActiveSessions:vector ETV
attr interpolationmode sample-hold
attr recordingmode vector
attr source sum(connect)
attr title "number of active sessions"
vector 30 baselineTestQoS.hostVID[30].app[0] numActiveSessions:vector ETV
attr interpolationmode sample-hold
attr recordingmode vector
attr source sum(connect)
attr title "number of active sessions"
vector 31 baselineTestQoS.hostVID[31].app[0] numActiveSessions:vector ETV
attr interpolationmode sample-hold
attr recordingmode vector
attr source sum(connect)
attr title "number of active sessions"
vector 32 baselineTestQoS.hostVID[32].app[0] numActiveSessions:vector ETV
attr interpolationmode sample-hold
attr recordingmode vector
attr source sum(connect)
attr title "number of active sessions"
vector 33 baselineTestQoS.hostVID[33].app[0] numActiveSessions:vector ETV
attr interpolationmode sample-hold
attr recordingmode vector
attr source sum(connect)
attr title "number of active sessions"
vector 34 baselineTestQoS.hostVID[34].app[0] numActiveSessions:vector ETV
attr interpolationmode sample-hold
attr recordingmode vector
attr source sum(connect)
attr title "number of active sessions"
vector 35 baselineTestQoS.hostVID[35].app[0] numActiveSessions:vector ETV
attr interpolationmode sample-hold
attr recordingmode vector
attr source sum(connect)
attr title "number of active sessions"
vector 36 baselineTestQoS.hostVID[36].app[0] numActiveSessions:vector ETV
attr interpolationmode sample-hold
attr recordingmode vector
attr source sum(connect)
attr title "number of active sessions"
vector 37 baselineTestQoS.hostVID[37].app[0] numActiveSessions:vector ETV
attr interpolationmode sample-hold
attr recordingmode vector
attr source sum(connect)
attr title "number of active sessions"
vector 38 baselineTestQoS.hostVID[38].app[0] numActiveSessions:vector ETV
attr interpolationmode sample-hold
attr recordingmode vector
attr source sum(connect)
attr title "number of active sessions"
vector 39 baselineTestQoS.hostVID[39].app[0] numActiveSessions:vector ETV
attr interpolationmode sample-hold
attr recordingmode vector
attr source sum(connect)
attr title "number of active sessions"
vector 40 baselineTestQoS.hostVID[40].app[0] numActiveSessions:vector ETV
attr interpolationmode sample-hold
attr recordingmode vector
attr source sum(connect)
attr title "number of active sessions"
vector 41 baselineTestQoS.hostVID[41].app[0] numActiveSessions:vector ETV
attr interpolationmode sample-hold
attr recordingmode vector
attr source sum(connect)
attr title "number of active sessions"
vector 42 baselineTestQoS.hostVID[42].app[0] numActiveSessions:vector ETV
attr interpolationmode sample-hold
attr recordingmode vector
attr source sum(connect)
attr title "number of active sessions"
vector 43 baselineTestQoS.hostVID[43].app[0] numActiveSessions:vector ETV
attr interpolationmode sample-hold
attr recordingmode vector
attr source sum(connect)
attr title "number of active sessions"
vector 44 baselineTestQoS.hostVID[44].app[0] numActiveSessions:vector ETV
attr interpolationmode sample-hold
attr recordingmode vector
attr source sum(connect)
attr title "number of active sessions"
vector 45 baselineTestQoS.hostVID[45].app[0] numActiveSessions:vector ETV
attr interpolationmode sample-hold
attr recordingmode vector
attr source sum(connect)
attr title "number of active sessions"
vector 46 baselineTestQoS.hostVID[46].app[0] numActiveSessions:vector ETV
attr interpolationmode sample-hold
attr recordingmode vector
attr source sum(connect)
attr title "number of active sessions"
vector 47 baselineTestQoS.hostVID[47].app[0] numActiveSessions:vector ETV
attr interpolationmode sample-hold
attr recordingmode vector
attr source sum(connect)
attr title "number of active sessions"
vector 48 baselineTestQoS.hostVID[48].app[0] numActiveSessions:vector ETV
attr interpolationmode sample-hold
attr recordingmode vector
attr source sum(connect)
attr title "number of active sessions"
vector 49 baselineTestQoS.hostVID[49].app[0] numActiveSessions:vector ETV
attr interpolationmode sample-hold
attr recordingmode vector
attr source sum(connect)
attr title "number of active sessions"
vector 50 baselineTestQoS.hostVID[50].app[0] numActiveSessions:vector ETV
attr interpolationmode sample-hold
attr recordingmode vector
attr source sum(connect)
attr title "number of active sessions"
vector 51 baselineTestQoS.hostVID[51].app[0] numActiveSessions:vector ETV
attr interpolationmode sample-hold
attr recordingmode vector
attr source sum(connect)
attr title "number of active sessions"
vector 52 baselineTestQoS.hostVID[52].app[0] numActiveSessions:vector ETV
attr interpolationmode sample-hold
attr recordingmode vector
attr source sum(connect)
attr title "number of active sessions"
vector 53 baselineTestQoS.hostVID[53].app[0] numActiveSessions:vector ETV
attr interpolationmode sample-hold
attr recordingmode vector
attr source sum(connect)
attr title "number of active sessions"
vector 54 baselineTestQoS.hostVID[54].app[0] numActiveSessions:vector ETV
attr interpolationmode sample-hold
attr recordingmode vector
attr source sum(connect)
attr title "number of active sessions"
vector 55 baselineTestQoS.hostVID[55].app[0] numActiveSessions:vector ETV
attr interpolationmode sample-hold
attr recordingmode vector
attr source sum(connect)
attr title "number of active sessions"
vector 56 baselineTestQoS.hostVID[56].app[0] numActiveSessions:vector ETV
attr interpolationmode sample-hold
attr recordingmode vector
attr source sum(connect)
attr title "number of active sessions"
vector 57 baselineTestQoS.hostLVD[0].app[0] numActiveSessions:vector ETV
attr interpolationmode sample-hold
attr recordingmode vector
attr source sum(connect)
attr title "number of active sessions"
vector 58 baselineTestQoS.hostLVD[1].app[0] numActiveSessions:vector ETV
attr interpolationmode sample-hold
attr recordingmode vector
attr source sum(connect)
attr title "number of active sessions"
vector 59 baselineTestQoS.hostLVD[2].app[0] numActiveSessions:vector ETV
attr interpolationmode sample-hold
attr recordingmode vector
attr source sum(connect)
attr title "number of active sessions"
vector 60 baselineTestQoS.hostLVD[3].app[0] numActiveSessions:vector ETV
attr interpolationmode sample-hold
attr recordingmode vector
attr source sum(connect)
attr title "number of active sessions"
vector 61 baselineTestQoS.hostLVD[4].app[0] numActiveSessions:vector ETV
attr interpolationmode sample-hold
attr recordingmode vector
attr source sum(connect)
attr title "number of active sessions"
vector 62 baselineTestQoS.hostLVD[5].app[0] numActiveSessions:vector ETV
attr interpolationmode sample-hold
attr recordingmode vector
attr source sum(connect)
attr title "number of active sessions"
vector 63 baselineTestQoS.hostLVD[6].app[0] numActiveSessions:vector ETV
attr interpolationmode sample-hold
attr recordingmode vector
attr source sum(connect)
attr title "number of active sessions"
vector 64 baselineTestQoS.hostLVD[7].app[0] numActiveSessions:vector ETV
attr interpolationmode sample-hold
attr recordingmode vector
attr source sum(connect)
attr title "number of active sessions"
vector 65 baselineTestQoS.hostLVD[8].app[0] numActiveSessions:vector ETV
attr interpolationmode sample-hold
attr recordingmode vector
attr source sum(connect)
attr title "number of active sessions"
vector 66 baselineTestQoS.hostLVD[9].app[0] numActiveSessions:vector ETV
attr interpolationmode sample-hold
attr recordingmode vector
attr source sum(connect)
attr title "number of active sessions"
vector 67 baselineTestQoS.hostLVD[10].app[0] numActiveSessions:vector ETV
attr interpolationmode sample-hold
attr recordingmode vector
attr source sum(connect)
attr title "number of active sessions"
vector 68 baselineTestQoS.hostLVD[11].app[0] numActiveSessions:vector ETV
attr interpolationmode sample-hold
attr recordingmode vector
attr source sum(connect)
attr title "number of active sessions"
vector 69 baselineTestQoS.hostLVD[12].app[0] numActiveSessions:vector ETV
attr interpolationmode sample-hold
attr recordingmode vector
attr source sum(connect)
attr title "number of active sessions"
vector 70 baselineTestQoS.hostLVD[13].app[0] numActiveSessions:vector ETV
attr interpolationmode sample-hold
attr recordingmode vector
attr source sum(connect)
attr title "number of active sessions"
vector 71 baselineTestQoS.hostLVD[14].app[0] numActiveSessions:vector ETV
attr interpolationmode sample-hold
attr recordingmode vector
attr source sum(connect)
attr title "number of active sessions"
vector 72 baselineTestQoS.hostLVD[15].app[0] numActiveSessions:vector ETV
attr interpolationmode sample-hold
attr recordingmode vector
attr source sum(connect)
attr title "number of active sessions"
vector 73 baselineTestQoS.hostLVD[16].app[0] numActiveSessions:vector ETV
attr interpolationmode sample-hold
attr recordingmode vector
attr source sum(connect)
attr title "number of active sessions"
vector 74 baselineTestQoS.hostLVD[17].app[0] numActiveSessions:vector ETV
attr interpolationmode sample-hold
attr recordingmode vector
attr source sum(connect)
attr title "number of active sessions"
vector 75 baselineTestQoS.hostLVD[18].app[0] numActiveSessions:vector ETV
attr interpolationmode sample-hold
attr recordingmode vector
attr source sum(connect)
attr title "number of active sessions"
vector 76 baselineTestQoS.hostLVD[19].app[0] numActiveSessions:vector ETV
attr interpolationmode sample-hold
attr recordingmode vector
attr source sum(connect)
attr title "number of active sessions"
vector 77 baselineTestQoS.hostLVD[20].app[0] numActiveSessions:vector ETV
attr interpolationmode sample-hold
attr recordingmode vector
attr source sum(connect)
attr title "number of active sessions"
vector 78 baselineTestQoS.hostLVD[21].app[0] numActiveSessions:vector ETV
attr interpolationmode sample-hold
attr recordingmode vector
attr source sum(connect)
attr title "number of active sessions"
vector 79 baselineTestQoS.hostLVD[22].app[0] numActiveSessions:vector ETV
attr interpolationmode sample-hold
attr recordingmode vector
attr source sum(connect)
attr title "number of active sessions"
vector 80 baselineTestQoS.hostLVD[23].app[0] numActiveSessions:vector ETV
attr interpolationmode sample-hold
attr recordingmode vector
attr source sum(connect)
attr title "number of active sessions"
vector 81 baselineTestQoS.hostLVD[24].app[0] numActiveSessions:vector ETV
attr interpolationmode sample-hold
attr recordingmode vector
attr source sum(connect)
attr title "number of active sessions"
vector 82 baselineTestQoS.hostLVD[25].app[0] numActiveSessions:vector ETV
attr interpolationmode sample-hold
attr recordingmode vector
attr source sum(connect)
attr title "number of active sessions"
vector 83 baselineTestQoS.hostFDO[0].app[0] numActiveSessions:vector ETV
attr interpolationmode sample-hold
attr recordingmode vector
attr source sum(connect)
attr title "number of active sessions"
vector 84 baselineTestQoS.hostFDO[1].app[0] numActiveSessions:vector ETV
attr interpolationmode sample-hold
attr recordingmode vector
attr source sum(connect)
attr title "number of active sessions"
vector 85 baselineTestQoS.hostFDO[2].app[0] numActiveSessions:vector ETV
attr interpolationmode sample-hold
attr recordingmode vector
attr source sum(connect)
attr title "number of active sessions"
vector 86 baselineTestQoS.hostFDO[3].app[0] numActiveSessions:vector ETV
attr interpolationmode sample-hold
attr recordingmode vector
attr source sum(connect)
attr title "number of active sessions"
vector 87 baselineTestQoS.hostFDO[4].app[0] numActiveSessions:vector ETV
attr interpolationmode sample-hold
attr recordingmode vector
attr source sum(connect)
attr title "number of active sessions"
vector 88 baselineTestQoS.hostFDO[5].app[0] numActiveSessions:vector ETV
attr interpolationmode sample-hold
attr recordingmode vector
attr source sum(connect)
attr title "number of active sessions"
vector 89 baselineTestQoS.hostFDO[6].app[0] numActiveSessions:vector ETV
attr interpolationmode sample-hold
attr recordingmode vector
attr source sum(connect)
attr title "number of active sessions"
vector 90 baselineTestQoS.hostSSH[0].app[0] numActiveSessions:vector ETV
attr "" ""
attr interpolationmode sample-hold
attr recordingmode vector
attr source sum(connect)
attr title "number of active sessions"
vector 91 baselineTestQoS.hostSSH[1].app[0] numActiveSessions:vector ETV
attr "" ""
attr interpolationmode sample-hold
attr recordingmode vector
attr source sum(connect)
attr title "number of active sessions"
vector 92 baselineTestQoS.hostSSH[2].app[0] numActiveSessions:vector ETV
attr "" ""
attr interpolationmode sample-hold
attr recordingmode vector
attr source sum(connect)
attr title "number of active sessions"
vector 93 baselineTestQoS.hostSSH[3].app[0] numActiveSessions:vector ETV
attr "" ""
attr interpolationmode sample-hold
attr recordingmode vector
attr source sum(connect)
attr title "number of active sessions"
vector 94 baselineTestQoS.hostSSH[4].app[0] numActiveSessions:vector ETV
attr "" ""
attr interpolationmode sample-hold
attr recordingmode vector
attr source sum(connect)
attr title "number of active sessions"
vector 95 baselineTestQoS.hostSSH[5].app[0] numActiveSessions:vector ETV
attr "" ""
attr interpolationmode sample-hold
attr recordingmode vector
attr source sum(connect)
attr title "number of active sessions"
vector 96 baselineTestQoS.hostSSH[6].app[0] numActiveSessions:vector ETV
attr "" ""
attr interpolationmode sample-hold
attr recordingmode vector
attr source sum(connect)
attr title "number of active sessions"
vector 97 baselineTestQoS.hostSSH[7].app[0] numActiveSessions:vector ETV
attr "" ""
attr interpolationmode sample-hold
attr recordingmode vector
attr source sum(connect)
attr title "number of active sessions"
vector 98 baselineTestQoS.hostSSH[8].app[0] numActiveSessions:vector ETV
attr "" ""
attr interpolationmode sample-hold
attr recordingmode vector
attr source sum(connect)
attr title "number of active sessions"
vector 99 baselineTestQoS.hostSSH[9].app[0] numActiveSessions:vector ETV
attr "" ""
attr interpolationmode sample-hold
attr recordingmode vector
attr source sum(connect)
attr title "number of active sessions"
vector 100 baselineTestQoS.hostVID[0].app[0] DASHBufferLength:vector ETV
attr recordingmode vector
attr title "Video buffer length (in seconds)"
vector 101 baselineTestQoS.hostVID[0].app[0] DASHVideoPlaybackPointer:vector ETV
attr recordingmode vector
attr title "Video playback pointer"
vector 102 baselineTestQoS.hostVID[0].app[0] DASHVideoBitrate:vector ETV
attr recordingmode vector
attr title "Requested video bitrate"
vector 103 baselineTestQoS.hostVID[0].app[0] DASHVideoResolution:vector ETV
attr recordingmode vector
attr title "Requested video resolution"
vector 104 baselineTestQoS.hostVID[1].app[0] DASHBufferLength:vector ETV
attr recordingmode vector
attr title "Video buffer length (in seconds)"
vector 105 baselineTestQoS.hostVID[1].app[0] DASHVideoPlaybackPointer:vector ETV
attr recordingmode vector
attr title "Video playback pointer"
vector 106 baselineTestQoS.hostVID[1].app[0] DASHVideoBitrate:vector ETV
attr recordingmode vector
attr title "Requested video bitrate"
vector 107 baselineTestQoS.hostVID[1].app[0] DASHVideoResolution:vector ETV
attr recordingmode vector
attr title "Requested video resolution"
vector 108 baselineTestQoS.hostVID[2].app[0] DASHBufferLength:vector ETV
attr recordingmode vector
attr title "Video buffer length (in seconds)"
vector 109 baselineTestQoS.hostVID[2].app[0] DASHVideoPlaybackPointer:vector ETV
attr recordingmode vector
attr title "Video playback pointer"
vector 110 baselineTestQoS.hostVID[2].app[0] DASHVideoBitrate:vector ETV
attr recordingmode vector
attr title "Requested video bitrate"
vector 111 baselineTestQoS.hostVID[2].app[0] DASHVideoResolution:vector ETV
attr recordingmode vector
attr title "Requested video resolution"
vector 112 baselineTestQoS.hostVID[3].app[0] DASHBufferLength:vector ETV
attr recordingmode vector
attr title "Video buffer length (in seconds)"
vector 113 baselineTestQoS.hostVID[3].app[0] DASHVideoPlaybackPointer:vector ETV
attr recordingmode vector
attr title "Video playback pointer"
vector 114 baselineTestQoS.hostVID[3].app[0] DASHVideoBitrate:vector ETV
attr recordingmode vector
attr title "Requested video bitrate"
vector 115 baselineTestQoS.hostVID[3].app[0] DASHVideoResolution:vector ETV
attr recordingmode vector
attr title "Requested video resolution"
vector 116 baselineTestQoS.hostVID[4].app[0] DASHBufferLength:vector ETV
attr recordingmode vector
attr title "Video buffer length (in seconds)"
vector 117 baselineTestQoS.hostVID[4].app[0] DASHVideoPlaybackPointer:vector ETV
attr recordingmode vector
attr title "Video playback pointer"
vector 118 baselineTestQoS.hostVID[4].app[0] DASHVideoBitrate:vector ETV
attr recordingmode vector
attr title "Requested video bitrate"
vector 119 baselineTestQoS.hostVID[4].app[0] DASHVideoResolution:vector ETV
attr recordingmode vector
attr title "Requested video resolution"
vector 120 baselineTestQoS.hostVID[5].app[0] DASHBufferLength:vector ETV
attr recordingmode vector
attr title "Video buffer length (in seconds)"
vector 121 baselineTestQoS.hostVID[5].app[0] DASHVideoPlaybackPointer:vector ETV
attr recordingmode vector
attr title "Video playback pointer"
vector 122 baselineTestQoS.hostVID[5].app[0] DASHVideoBitrate:vector ETV
attr recordingmode vector
attr title "Requested video bitrate"
vector 123 baselineTestQoS.hostVID[5].app[0] DASHVideoResolution:vector ETV
attr recordingmode vector
attr title "Requested video resolution"
vector 124 baselineTestQoS.hostVID[6].app[0] DASHBufferLength:vector ETV
attr recordingmode vector
attr title "Video buffer length (in seconds)"
vector 125 baselineTestQoS.hostVID[6].app[0] DASHVideoPlaybackPointer:vector ETV
attr recordingmode vector
attr title "Video playback pointer"
vector 126 baselineTestQoS.hostVID[6].app[0] DASHVideoBitrate:vector ETV
attr recordingmode vector
attr title "Requested video bitrate"
vector 127 baselineTestQoS.hostVID[6].app[0] DASHVideoResolution:vector ETV
attr recordingmode vector
attr title "Requested video resolution"
vector 128 baselineTestQoS.hostVID[7].app[0] DASHBufferLength:vector ETV
attr recordingmode vector
attr title "Video buffer length (in seconds)"
vector 129 baselineTestQoS.hostVID[7].app[0] DASHVideoPlaybackPointer:vector ETV
attr recordingmode vector
attr title "Video playback pointer"
vector 130 baselineTestQoS.hostVID[7].app[0] DASHVideoBitrate:vector ETV
attr recordingmode vector
attr title "Requested video bitrate"
vector 131 baselineTestQoS.hostVID[7].app[0] DASHVideoResolution:vector ETV
attr recordingmode vector
attr title "Requested video resolution"
vector 132 baselineTestQoS.hostVID[8].app[0] DASHBufferLength:vector ETV
attr recordingmode vector
attr title "Video buffer length (in seconds)"
vector 133 baselineTestQoS.hostVID[8].app[0] DASHVideoPlaybackPointer:vector ETV
attr recordingmode vector
attr title "Video playback pointer"
vector 134 baselineTestQoS.hostVID[8].app[0] DASHVideoBitrate:vector ETV
attr recordingmode vector
attr title "Requested video bitrate"
vector 135 baselineTestQoS.hostVID[8].app[0] DASHVideoResolution:vector ETV
attr recordingmode vector
attr title "Requested video resolution"
vector 136 baselineTestQoS.hostVID[9].app[0] DASHBufferLength:vector ETV
attr recordingmode vector
attr title "Video buffer length (in seconds)"
vector 137 baselineTestQoS.hostVID[9].app[0] DASHVideoPlaybackPointer:vector ETV
attr recordingmode vector
attr title "Video playback pointer"
vector 138 baselineTestQoS.hostVID[9].app[0] DASHVideoBitrate:vector ETV
attr recordingmode vector
attr title "Requested video bitrate"
vector 139 baselineTestQoS.hostVID[9].app[0] DASHVideoResolution:vector ETV
attr recordingmode vector
attr title "Requested video resolution"
vector 140 baselineTestQoS.hostVID[10].app[0] DASHBufferLength:vector ETV
attr recordingmode vector
attr title "Video buffer length (in seconds)"
vector 141 baselineTestQoS.hostVID[10].app[0] DASHVideoPlaybackPointer:vector ETV
attr recordingmode vector
attr title "Video playback pointer"
vector 142 baselineTestQoS.hostVID[10].app[0] DASHVideoBitrate:vector ETV
attr recordingmode vector
attr title "Requested video bitrate"
vector 143 baselineTestQoS.hostVID[10].app[0] DASHVideoResolution:vector ETV
attr recordingmode vector
attr title "Requested video resolution"
vector 144 baselineTestQoS.hostVID[11].app[0] DASHBufferLength:vector ETV
attr recordingmode vector
attr title "Video buffer length (in seconds)"
vector 145 baselineTestQoS.hostVID[11].app[0] DASHVideoPlaybackPointer:vector ETV
attr recordingmode vector
attr title "Video playback pointer"
vector 146 baselineTestQoS.hostVID[11].app[0] DASHVideoBitrate:vector ETV
attr recordingmode vector
attr title "Requested video bitrate"
vector 147 baselineTestQoS.hostVID[11].app[0] DASHVideoResolution:vector ETV
attr recordingmode vector
attr title "Requested video resolution"
vector 148 baselineTestQoS.hostVID[12].app[0] DASHBufferLength:vector ETV
attr recordingmode vector
attr title "Video buffer length (in seconds)"
vector 149 baselineTestQoS.hostVID[12].app[0] DASHVideoPlaybackPointer:vector ETV
attr recordingmode vector
attr title "Video playback pointer"
vector 150 baselineTestQoS.hostVID[12].app[0] DASHVideoBitrate:vector ETV
attr recordingmode vector
attr title "Requested video bitrate"
vector 151 baselineTestQoS.hostVID[12].app[0] DASHVideoResolution:vector ETV
attr recordingmode vector
attr title "Requested video resolution"
vector 152 baselineTestQoS.hostVID[13].app[0] DASHBufferLength:vector ETV
attr recordingmode vector
attr title "Video buffer length (in seconds)"
vector 153 baselineTestQoS.hostVID[13].app[0] DASHVideoPlaybackPointer:vector ETV
attr recordingmode vector
attr title "Video playback pointer"
vector 154 baselineTestQoS.hostVID[13].app[0] DASHVideoBitrate:vector ETV
attr recordingmode vector
attr title "Requested video bitrate"
vector 155 baselineTestQoS.hostVID[13].app[0] DASHVideoResolution:vector ETV
attr recordingmode vector
attr title "Requested video resolution"
vector 156 baselineTestQoS.hostVID[14].app[0] DASHBufferLength:vector ETV
attr recordingmode vector
attr title "Video buffer length (in seconds)"
vector 157 baselineTestQoS.hostVID[14].app[0] DASHVideoPlaybackPointer:vector ETV
attr recordingmode vector
attr title "Video playback pointer"
vector 158 baselineTestQoS.hostVID[14].app[0] DASHVideoBitrate:vector ETV
attr recordingmode vector
attr title "Requested video bitrate"
vector 159 baselineTestQoS.hostVID[14].app[0] DASHVideoResolution:vector ETV
attr recordingmode vector
attr title "Requested video resolution"
vector 160 baselineTestQoS.hostVID[15].app[0] DASHBufferLength:vector ETV
attr recordingmode vector
attr title "Video buffer length (in seconds)"
vector 161 baselineTestQoS.hostVID[15].app[0] DASHVideoPlaybackPointer:vector ETV
attr recordingmode vector
attr title "Video playback pointer"
vector 162 baselineTestQoS.hostVID[15].app[0] DASHVideoBitrate:vector ETV
attr recordingmode vector
attr title "Requested video bitrate"
vector 163 baselineTestQoS.hostVID[15].app[0] DASHVideoResolution:vector ETV
attr recordingmode vector
attr title "Requested video resolution"
vector 164 baselineTestQoS.hostVID[16].app[0] DASHBufferLength:vector ETV
attr recordingmode vector
attr title "Video buffer length (in seconds)"
vector 165 baselineTestQoS.hostVID[16].app[0] DASHVideoPlaybackPointer:vector ETV
attr recordingmode vector
attr title "Video playback pointer"
vector 166 baselineTestQoS.hostVID[16].app[0] DASHVideoBitrate:vector ETV
attr recordingmode vector
attr title "Requested video bitrate"
vector 167 baselineTestQoS.hostVID[16].app[0] DASHVideoResolution:vector ETV
attr recordingmode vector
attr title "Requested video resolution"
vector 168 baselineTestQoS.hostVID[17].app[0] DASHBufferLength:vector ETV
attr recordingmode vector
attr title "Video buffer length (in seconds)"
vector 169 baselineTestQoS.hostVID[17].app[0] DASHVideoPlaybackPointer:vector ETV
attr recordingmode vector
attr title "Video playback pointer"
vector 170 baselineTestQoS.hostVID[17].app[0] DASHVideoBitrate:vector ETV
attr recordingmode vector
attr title "Requested video bitrate"
vector 171 baselineTestQoS.hostVID[17].app[0] DASHVideoResolution:vector ETV
attr recordingmode vector
attr title "Requested video resolution"
vector 172 baselineTestQoS.hostVID[18].app[0] DASHBufferLength:vector ETV
attr recordingmode vector
attr title "Video buffer length (in seconds)"
vector 173 baselineTestQoS.hostVID[18].app[0] DASHVideoPlaybackPointer:vector ETV
attr recordingmode vector
attr title "Video playback pointer"
vector 174 baselineTestQoS.hostVID[18].app[0] DASHVideoBitrate:vector ETV
attr recordingmode vector
attr title "Requested video bitrate"
vector 175 baselineTestQoS.hostVID[18].app[0] DASHVideoResolution:vector ETV
attr recordingmode vector
attr title "Requested video resolution"
vector 176 baselineTestQoS.hostVID[19].app[0] DASHBufferLength:vector ETV
attr recordingmode vector
attr title "Video buffer length (in seconds)"
vector 177 baselineTestQoS.hostVID[19].app[0] DASHVideoPlaybackPointer:vector ETV
attr recordingmode vector
attr title "Video playback pointer"
vector 178 baselineTestQoS.hostVID[19].app[0] DASHVideoBitrate:vector ETV
attr recordingmode vector
attr title "Requested video bitrate"
vector 179 baselineTestQoS.hostVID[19].app[0] DASHVideoResolution:vector ETV
attr recordingmode vector
attr title "Requested video resolution"
vector 180 baselineTestQoS.hostVID[20].app[0] DASHBufferLength:vector ETV
attr recordingmode vector
attr title "Video buffer length (in seconds)"
vector 181 baselineTestQoS.hostVID[20].app[0] DASHVideoPlaybackPointer:vector ETV
attr recordingmode vector
attr title "Video playback pointer"
vector 182 baselineTestQoS.hostVID[20].app[0] DASHVideoBitrate:vector ETV
attr recordingmode vector
attr title "Requested video bitrate"
vector 183 baselineTestQoS.hostVID[20].app[0] DASHVideoResolution:vector ETV
attr recordingmode vector
attr title "Requested video resolution"
vector 184 baselineTestQoS.hostVID[21].app[0] DASHBufferLength:vector ETV
attr recordingmode vector
attr title "Video buffer length (in seconds)"
vector 185 baselineTestQoS.hostVID[21].app[0] DASHVideoPlaybackPointer:vector ETV
attr recordingmode vector
attr title "Video playback pointer"
vector 186 baselineTestQoS.hostVID[21].app[0] DASHVideoBitrate:vector ETV
attr recordingmode vector
attr title "Requested video bitrate"
vector 187 baselineTestQoS.hostVID[21].app[0] DASHVideoResolution:vector ETV
attr recordingmode vector
attr title "Requested video resolution"
vector 188 baselineTestQoS.hostVID[22].app[0] DASHBufferLength:vector ETV
attr recordingmode vector
attr title "Video buffer length (in seconds)"
vector 189 baselineTestQoS.hostVID[22].app[0] DASHVideoPlaybackPointer:vector ETV
attr recordingmode vector
attr title "Video playback pointer"
vector 190 baselineTestQoS.hostVID[22].app[0] DASHVideoBitrate:vector ETV
attr recordingmode vector
attr title "Requested video bitrate"
vector 191 baselineTestQoS.hostVID[22].app[0] DASHVideoResolution:vector ETV
attr recordingmode vector
attr title "Requested video resolution"
vector 192 baselineTestQoS.hostVID[23].app[0] DASHBufferLength:vector ETV
attr recordingmode vector
attr title "Video buffer length (in seconds)"
vector 193 baselineTestQoS.hostVID[23].app[0] DASHVideoPlaybackPointer:vector ETV
attr recordingmode vector
attr title "Video playback pointer"
vector 194 baselineTestQoS.hostVID[23].app[0] DASHVideoBitrate:vector ETV
attr recordingmode vector
attr title "Requested video bitrate"
vector 195 baselineTestQoS.hostVID[23].app[0] DASHVideoResolution:vector ETV
attr recordingmode vector
attr title "Requested video resolution"
vector 196 baselineTestQoS.hostVID[24].app[0] DASHBufferLength:vector ETV
attr recordingmode vector
attr title "Video buffer length (in seconds)"
vector 197 baselineTestQoS.hostVID[24].app[0] DASHVideoPlaybackPointer:vector ETV
attr recordingmode vector
attr title "Video playback pointer"
vector 198 baselineTestQoS.hostVID[24].app[0] DASHVideoBitrate:vector ETV
attr recordingmode vector
attr title "Requested video bitrate"
vector 199 baselineTestQoS.hostVID[24].app[0] DASHVideoResolution:vector ETV
attr recordingmode vector
attr title "Requested video resolution"
vector 200 baselineTestQoS.hostVID[25].app[0] DASHBufferLength:vector ETV
attr recordingmode vector
attr title "Video buffer length (in seconds)"
vector 201 baselineTestQoS.hostVID[25].app[0] DASHVideoPlaybackPointer:vector ETV
attr recordingmode vector
attr title "Video playback pointer"
vector 202 baselineTestQoS.hostVID[25].app[0] DASHVideoBitrate:vector ETV
attr recordingmode vector
attr title "Requested video bitrate"
vector 203 baselineTestQoS.hostVID[25].app[0] DASHVideoResolution:vector ETV
attr recordingmode vector
attr title "Requested video resolution"
vector 204 baselineTestQoS.hostVID[26].app[0] DASHBufferLength:vector ETV
attr recordingmode vector
attr title "Video buffer length (in seconds)"
vector 205 baselineTestQoS.hostVID[26].app[0] DASHVideoPlaybackPointer:vector ETV
attr recordingmode vector
attr title "Video playback pointer"
vector 206 baselineTestQoS.hostVID[26].app[0] DASHVideoBitrate:vector ETV
attr recordingmode vector
attr title "Requested video bitrate"
vector 207 baselineTestQoS.hostVID[26].app[0] DASHVideoResolution:vector ETV
attr recordingmode vector
attr title "Requested video resolution"
vector 208 baselineTestQoS.hostVID[27].app[0] DASHBufferLength:vector ETV
attr recordingmode vector
attr title "Video buffer length (in seconds)"
vector 209 baselineTestQoS.hostVID[27].app[0] DASHVideoPlaybackPointer:vector ETV
attr recordingmode vector
attr title "Video playback pointer"
vector 210 baselineTestQoS.hostVID[27].app[0] DASHVideoBitrate:vector ETV
attr recordingmode vector
attr title "Requested video bitrate"
vector 211 baselineTestQoS.hostVID[27].app[0] DASHVideoResolution:vector ETV
attr recordingmode vector
attr title "Requested video resolution"
vector 212 baselineTestQoS.hostVID[28].app[0] DASHBufferLength:vector ETV
attr recordingmode vector
attr title "Video buffer length (in seconds)"
vector 213 baselineTestQoS.hostVID[28].app[0] DASHVideoPlaybackPointer:vector ETV
attr recordingmode vector
attr title "Video playback pointer"
vector 214 baselineTestQoS.hostVID[28].app[0] DASHVideoBitrate:vector ETV
attr recordingmode vector
attr title "Requested video bitrate"
vector 215 baselineTestQoS.hostVID[28].app[0] DASHVideoResolution:vector ETV
attr recordingmode vector
attr title "Requested video resolution"
vector 216 baselineTestQoS.hostVID[29].app[0] DASHBufferLength:vector ETV
attr recordingmode vector
attr title "Video buffer length (in seconds)"
vector 217 baselineTestQoS.hostVID[29].app[0] DASHVideoPlaybackPointer:vector ETV
attr recordingmode vector
attr title "Video playback pointer"
vector 218 baselineTestQoS.hostVID[29].app[0] DASHVideoBitrate:vector ETV
attr recordingmode vector
attr title "Requested video bitrate"
vector 219 baselineTestQoS.hostVID[29].app[0] DASHVideoResolution:vector ETV
attr recordingmode vector
attr title "Requested video resolution"
vector 220 baselineTestQoS.hostVID[30].app[0] DASHBufferLength:vector ETV
attr recordingmode vector
attr title "Video buffer length (in seconds)"
vector 221 baselineTestQoS.hostVID[30].app[0] DASHVideoPlaybackPointer:vector ETV
attr recordingmode vector
attr title "Video playback pointer"
vector 222 baselineTestQoS.hostVID[30].app[0] DASHVideoBitrate:vector ETV
attr recordingmode vector
attr title "Requested video bitrate"
vector 223 baselineTestQoS.hostVID[30].app[0] DASHVideoResolution:vector ETV
attr recordingmode vector
attr title "Requested video resolution"
vector 224 baselineTestQoS.hostVID[31].app[0] DASHBufferLength:vector ETV
attr recordingmode vector
attr title "Video buffer length (in seconds)"
vector 225 baselineTestQoS.hostVID[31].app[0] DASHVideoPlaybackPointer:vector ETV
attr recordingmode vector
attr title "Video playback pointer"
vector 226 baselineTestQoS.hostVID[31].app[0] DASHVideoBitrate:vector ETV
attr recordingmode vector
attr title "Requested video bitrate"
vector 227 baselineTestQoS.hostVID[31].app[0] DASHVideoResolution:vector ETV
attr recordingmode vector
attr title "Requested video resolution"
vector 228 baselineTestQoS.hostVID[32].app[0] DASHBufferLength:vector ETV
attr recordingmode vector
attr title "Video buffer length (in seconds)"
vector 229 baselineTestQoS.hostVID[32].app[0] DASHVideoPlaybackPointer:vector ETV
attr recordingmode vector
attr title "Video playback pointer"
vector 230 baselineTestQoS.hostVID[32].app[0] DASHVideoBitrate:vector ETV
attr recordingmode vector
attr title "Requested video bitrate"
vector 231 baselineTestQoS.hostVID[32].app[0] DASHVideoResolution:vector ETV
attr recordingmode vector
attr title "Requested video resolution"
vector 232 baselineTestQoS.hostVID[33].app[0] DASHBufferLength:vector ETV
attr recordingmode vector
attr title "Video buffer length (in seconds)"
vector 233 baselineTestQoS.hostVID[33].app[0] DASHVideoPlaybackPointer:vector ETV
attr recordingmode vector
attr title "Video playback pointer"
vector 234 baselineTestQoS.hostVID[33].app[0] DASHVideoBitrate:vector ETV
attr recordingmode vector
attr title "Requested video bitrate"
vector 235 baselineTestQoS.hostVID[33].app[0] DASHVideoResolution:vector ETV
attr recordingmode vector
attr title "Requested video resolution"
vector 236 baselineTestQoS.hostVID[34].app[0] DASHBufferLength:vector ETV
attr recordingmode vector
attr title "Video buffer length (in seconds)"
vector 237 baselineTestQoS.hostVID[34].app[0] DASHVideoPlaybackPointer:vector ETV
attr recordingmode vector
attr title "Video playback pointer"
vector 238 baselineTestQoS.hostVID[34].app[0] DASHVideoBitrate:vector ETV
attr recordingmode vector
attr title "Requested video bitrate"
vector 239 baselineTestQoS.hostVID[34].app[0] DASHVideoResolution:vector ETV
attr recordingmode vector
attr title "Requested video resolution"
vector 240 baselineTestQoS.hostVID[35].app[0] DASHBufferLength:vector ETV
attr recordingmode vector
attr title "Video buffer length (in seconds)"
vector 241 baselineTestQoS.hostVID[35].app[0] DASHVideoPlaybackPointer:vector ETV
attr recordingmode vector
attr title "Video playback pointer"
vector 242 baselineTestQoS.hostVID[35].app[0] DASHVideoBitrate:vector ETV
attr recordingmode vector
attr title "Requested video bitrate"
vector 243 baselineTestQoS.hostVID[35].app[0] DASHVideoResolution:vector ETV
attr recordingmode vector
attr title "Requested video resolution"
vector 244 baselineTestQoS.hostVID[36].app[0] DASHBufferLength:vector ETV
attr recordingmode vector
attr title "Video buffer length (in seconds)"
vector 245 baselineTestQoS.hostVID[36].app[0] DASHVideoPlaybackPointer:vector ETV
attr recordingmode vector
attr title "Video playback pointer"
vector 246 baselineTestQoS.hostVID[36].app[0] DASHVideoBitrate:vector ETV
attr recordingmode vector
attr title "Requested video bitrate"
vector 247 baselineTestQoS.hostVID[36].app[0] DASHVideoResolution:vector ETV
attr recordingmode vector
attr title "Requested video resolution"
vector 248 baselineTestQoS.hostVID[37].app[0] DASHBufferLength:vector ETV
attr recordingmode vector
attr title "Video buffer length (in seconds)"
vector 249 baselineTestQoS.hostVID[37].app[0] DASHVideoPlaybackPointer:vector ETV
attr recordingmode vector
attr title "Video playback pointer"
vector 250 baselineTestQoS.hostVID[37].app[0] DASHVideoBitrate:vector ETV
attr recordingmode vector
attr title "Requested video bitrate"
vector 251 baselineTestQoS.hostVID[37].app[0] DASHVideoResolution:vector ETV
attr recordingmode vector
attr title "Requested video resolution"
vector 252 baselineTestQoS.hostVID[38].app[0] DASHBufferLength:vector ETV
attr recordingmode vector
attr title "Video buffer length (in seconds)"
vector 253 baselineTestQoS.hostVID[38].app[0] DASHVideoPlaybackPointer:vector ETV
attr recordingmode vector
attr title "Video playback pointer"
vector 254 baselineTestQoS.hostVID[38].app[0] DASHVideoBitrate:vector ETV
attr recordingmode vector
attr title "Requested video bitrate"
vector 255 baselineTestQoS.hostVID[38].app[0] DASHVideoResolution:vector ETV
attr recordingmode vector
attr title "Requested video resolution"
vector 256 baselineTestQoS.hostVID[39].app[0] DASHBufferLength:vector ETV
attr recordingmode vector
attr title "Video buffer length (in seconds)"
vector 257 baselineTestQoS.hostVID[39].app[0] DASHVideoPlaybackPointer:vector ETV
attr recordingmode vector
attr title "Video playback pointer"
vector 258 baselineTestQoS.hostVID[39].app[0] DASHVideoBitrate:vector ETV
attr recordingmode vector
attr title "Requested video bitrate"
vector 259 baselineTestQoS.hostVID[39].app[0] DASHVideoResolution:vector ETV
attr recordingmode vector
attr title "Requested video resolution"
vector 260 baselineTestQoS.hostVID[40].app[0] DASHBufferLength:vector ETV
attr recordingmode vector
attr title "Video buffer length (in seconds)"
vector 261 baselineTestQoS.hostVID[40].app[0] DASHVideoPlaybackPointer:vector ETV
attr recordingmode vector
attr title "Video playback pointer"
vector 262 baselineTestQoS.hostVID[40].app[0] DASHVideoBitrate:vector ETV
attr recordingmode vector
attr title "Requested video bitrate"
vector 263 baselineTestQoS.hostVID[40].app[0] DASHVideoResolution:vector ETV
attr recordingmode vector
attr title "Requested video resolution"
vector 264 baselineTestQoS.hostVID[41].app[0] DASHBufferLength:vector ETV
attr recordingmode vector
attr title "Video buffer length (in seconds)"
vector 265 baselineTestQoS.hostVID[41].app[0] DASHVideoPlaybackPointer:vector ETV
attr recordingmode vector
attr title "Video playback pointer"
vector 266 baselineTestQoS.hostVID[41].app[0] DASHVideoBitrate:vector ETV
attr recordingmode vector
attr title "Requested video bitrate"
vector 267 baselineTestQoS.hostVID[41].app[0] DASHVideoResolution:vector ETV
attr recordingmode vector
attr title "Requested video resolution"
vector 268 baselineTestQoS.hostVID[42].app[0] DASHBufferLength:vector ETV
attr recordingmode vector
attr title "Video buffer length (in seconds)"
vector 269 baselineTestQoS.hostVID[42].app[0] DASHVideoPlaybackPointer:vector ETV
attr recordingmode vector
attr title "Video playback pointer"
vector 270 baselineTestQoS.hostVID[42].app[0] DASHVideoBitrate:vector ETV
attr recordingmode vector
attr title "Requested video bitrate"
vector 271 baselineTestQoS.hostVID[42].app[0] DASHVideoResolution:vector ETV
attr recordingmode vector
attr title "Requested video resolution"
vector 272 baselineTestQoS.hostVID[43].app[0] DASHBufferLength:vector ETV
attr recordingmode vector
attr title "Video buffer length (in seconds)"
vector 273 baselineTestQoS.hostVID[43].app[0] DASHVideoPlaybackPointer:vector ETV
attr recordingmode vector
attr title "Video playback pointer"
vector 274 baselineTestQoS.hostVID[43].app[0] DASHVideoBitrate:vector ETV
attr recordingmode vector
attr title "Requested video bitrate"
vector 275 baselineTestQoS.hostVID[43].app[0] DASHVideoResolution:vector ETV
attr recordingmode vector
attr title "Requested video resolution"
vector 276 baselineTestQoS.hostVID[44].app[0] DASHBufferLength:vector ETV
attr recordingmode vector
attr title "Video buffer length (in seconds)"
vector 277 baselineTestQoS.hostVID[44].app[0] DASHVideoPlaybackPointer:vector ETV
attr recordingmode vector
attr title "Video playback pointer"
vector 278 baselineTestQoS.hostVID[44].app[0] DASHVideoBitrate:vector ETV
attr recordingmode vector
attr title "Requested video bitrate"
vector 279 baselineTestQoS.hostVID[44].app[0] DASHVideoResolution:vector ETV
attr recordingmode vector
attr title "Requested video resolution"
vector 280 baselineTestQoS.hostVID[45].app[0] DASHBufferLength:vector ETV
attr recordingmode vector
attr title "Video buffer length (in seconds)"
vector 281 baselineTestQoS.hostVID[45].app[0] DASHVideoPlaybackPointer:vector ETV
attr recordingmode vector
attr title "Video playback pointer"
vector 282 baselineTestQoS.hostVID[45].app[0] DASHVideoBitrate:vector ETV
attr recordingmode vector
attr title "Requested video bitrate"
vector 283 baselineTestQoS.hostVID[45].app[0] DASHVideoResolution:vector ETV
attr recordingmode vector
attr title "Requested video resolution"
vector 284 baselineTestQoS.hostVID[46].app[0] DASHBufferLength:vector ETV
attr recordingmode vector
attr title "Video buffer length (in seconds)"
vector 285 baselineTestQoS.hostVID[46].app[0] DASHVideoPlaybackPointer:vector ETV
attr recordingmode vector
attr title "Video playback pointer"
vector 286 baselineTestQoS.hostVID[46].app[0] DASHVideoBitrate:vector ETV
attr recordingmode vector
attr title "Requested video bitrate"
vector 287 baselineTestQoS.hostVID[46].app[0] DASHVideoResolution:vector ETV
attr recordingmode vector
attr title "Requested video resolution"
vector 288 baselineTestQoS.hostVID[47].app[0] DASHBufferLength:vector ETV
attr recordingmode vector
attr title "Video buffer length (in seconds)"
vector 289 baselineTestQoS.hostVID[47].app[0] DASHVideoPlaybackPointer:vector ETV
attr recordingmode vector
attr title "Video playback pointer"
vector 290 baselineTestQoS.hostVID[47].app[0] DASHVideoBitrate:vector ETV
attr recordingmode vector
attr title "Requested video bitrate"
vector 291 baselineTestQoS.hostVID[47].app[0] DASHVideoResolution:vector ETV
attr recordingmode vector
attr title "Requested video resolution"
vector 292 baselineTestQoS.hostVID[48].app[0] DASHBufferLength:vector ETV
attr recordingmode vector
attr title "Video buffer length (in seconds)"
vector 293 baselineTestQoS.hostVID[48].app[0] DASHVideoPlaybackPointer:vector ETV
attr recordingmode vector
attr title "Video playback pointer"
vector 294 baselineTestQoS.hostVID[48].app[0] DASHVideoBitrate:vector ETV
attr recordingmode vector
attr title "Requested video bitrate"
vector 295 baselineTestQoS.hostVID[48].app[0] DASHVideoResolution:vector ETV
attr recordingmode vector
attr title "Requested video resolution"
vector 296 baselineTestQoS.hostVID[49].app[0] DASHBufferLength:vector ETV
attr recordingmode vector
attr title "Video buffer length (in seconds)"
vector 297 baselineTestQoS.hostVID[49].app[0] DASHVideoPlaybackPointer:vector ETV
attr recordingmode vector
attr title "Video playback pointer"
vector 298 baselineTestQoS.hostVID[49].app[0] DASHVideoBitrate:vector ETV
attr recordingmode vector
attr title "Requested video bitrate"
vector 299 baselineTestQoS.hostVID[49].app[0] DASHVideoResolution:vector ETV
attr recordingmode vector
attr title "Requested video resolution"
vector 300 baselineTestQoS.hostVID[50].app[0] DASHBufferLength:vector ETV
attr recordingmode vector
attr title "Video buffer length (in seconds)"
vector 301 baselineTestQoS.hostVID[50].app[0] DASHVideoPlaybackPointer:vector ETV
attr recordingmode vector
attr title "Video playback pointer"
vector 302 baselineTestQoS.hostVID[50].app[0] DASHVideoBitrate:vector ETV
attr recordingmode vector
attr title "Requested video bitrate"
vector 303 baselineTestQoS.hostVID[50].app[0] DASHVideoResolution:vector ETV
attr recordingmode vector
attr title "Requested video resolution"
vector 304 baselineTestQoS.hostVID[51].app[0] DASHBufferLength:vector ETV
attr recordingmode vector
attr title "Video buffer length (in seconds)"
vector 305 baselineTestQoS.hostVID[51].app[0] DASHVideoPlaybackPointer:vector ETV
attr recordingmode vector
attr title "Video playback pointer"
vector 306 baselineTestQoS.hostVID[51].app[0] DASHVideoBitrate:vector ETV
attr recordingmode vector
attr title "Requested video bitrate"
vector 307 baselineTestQoS.hostVID[51].app[0] DASHVideoResolution:vector ETV
attr recordingmode vector
attr title "Requested video resolution"
vector 308 baselineTestQoS.hostVID[52].app[0] DASHBufferLength:vector ETV
attr recordingmode vector
attr title "Video buffer length (in seconds)"
vector 309 baselineTestQoS.hostVID[52].app[0] DASHVideoPlaybackPointer:vector ETV
attr recordingmode vector
attr title "Video playback pointer"
vector 310 baselineTestQoS.hostVID[52].app[0] DASHVideoBitrate:vector ETV
attr recordingmode vector
attr title "Requested video bitrate"
vector 311 baselineTestQoS.hostVID[52].app[0] DASHVideoResolution:vector ETV
attr recordingmode vector
attr title "Requested video resolution"
vector 312 baselineTestQoS.hostVID[53].app[0] DASHBufferLength:vector ETV
attr recordingmode vector
attr title "Video buffer length (in seconds)"
vector 313 baselineTestQoS.hostVID[53].app[0] DASHVideoPlaybackPointer:vector ETV
attr recordingmode vector
attr title "Video playback pointer"
vector 314 baselineTestQoS.hostVID[53].app[0] DASHVideoBitrate:vector ETV
attr recordingmode vector
attr title "Requested video bitrate"
vector 315 baselineTestQoS.hostVID[53].app[0] DASHVideoResolution:vector ETV
attr recordingmode vector
attr title "Requested video resolution"
vector 316 baselineTestQoS.hostVID[54].app[0] DASHBufferLength:vector ETV
attr recordingmode vector
attr title "Video buffer length (in seconds)"
vector 317 baselineTestQoS.hostVID[54].app[0] DASHVideoPlaybackPointer:vector ETV
attr recordingmode vector
attr title "Video playback pointer"
vector 318 baselineTestQoS.hostVID[54].app[0] DASHVideoBitrate:vector ETV
attr recordingmode vector
attr title "Requested video bitrate"
vector 319 baselineTestQoS.hostVID[54].app[0] DASHVideoResolution:vector ETV
attr recordingmode vector
attr title "Requested video resolution"
vector 320 baselineTestQoS.hostVID[55].app[0] DASHBufferLength:vector ETV
attr recordingmode vector
attr title "Video buffer length (in seconds)"
vector 321 baselineTestQoS.hostVID[55].app[0] DASHVideoPlaybackPointer:vector ETV
attr recordingmode vector
attr title "Video playback pointer"
vector 322 baselineTestQoS.hostVID[55].app[0] DASHVideoBitrate:vector ETV
attr recordingmode vector
attr title "Requested video bitrate"
vector 323 baselineTestQoS.hostVID[55].app[0] DASHVideoResolution:vector ETV
attr recordingmode vector
attr title "Requested video resolution"
vector 324 baselineTestQoS.hostVID[56].app[0] DASHBufferLength:vector ETV
attr recordingmode vector
attr title "Video buffer length (in seconds)"
vector 325 baselineTestQoS.hostVID[56].app[0] DASHVideoPlaybackPointer:vector ETV
attr recordingmode vector
attr title "Video playback pointer"
vector 326 baselineTestQoS.hostVID[56].app[0] DASHVideoBitrate:vector ETV
attr recordingmode vector
attr title "Requested video bitrate"
vector 327 baselineTestQoS.hostVID[56].app[0] DASHVideoResolution:vector ETV
attr recordingmode vector
attr title "Requested video resolution"
vector 328 baselineTestQoS.hostLVD[0].app[0] DASHBufferLength:vector ETV
attr recordingmode vector
attr title "Video buffer length (in seconds)"
vector 329 baselineTestQoS.hostLVD[0].app[0] DASHVideoPlaybackPointer:vector ETV
attr recordingmode vector
attr title "Video playback pointer"
vector 330 baselineTestQoS.hostLVD[0].app[0] DASHVideoBitrate:vector ETV
attr recordingmode vector
attr title "Requested video bitrate"
vector 331 baselineTestQoS.hostLVD[0].app[0] DASHVideoResolution:vector ETV
attr recordingmode vector
attr title "Requested video resolution"
vector 332 baselineTestQoS.hostLVD[1].app[0] DASHBufferLength:vector ETV
attr recordingmode vector
attr title "Video buffer length (in seconds)"
vector 333 baselineTestQoS.hostLVD[1].app[0] DASHVideoPlaybackPointer:vector ETV
attr recordingmode vector
attr title "Video playback pointer"
vector 334 baselineTestQoS.hostLVD[1].app[0] DASHVideoBitrate:vector ETV
attr recordingmode vector
attr title "Requested video bitrate"
vector 335 baselineTestQoS.hostLVD[1].app[0] DASHVideoResolution:vector ETV
attr recordingmode vector
attr title "Requested video resolution"
vector 336 baselineTestQoS.hostLVD[2].app[0] DASHBufferLength:vector ETV
attr recordingmode vector
attr title "Video buffer length (in seconds)"
vector 337 baselineTestQoS.hostLVD[2].app[0] DASHVideoPlaybackPointer:vector ETV
attr recordingmode vector
attr title "Video playback pointer"
vector 338 baselineTestQoS.hostLVD[2].app[0] DASHVideoBitrate:vector ETV
attr recordingmode vector
attr title "Requested video bitrate"
vector 339 baselineTestQoS.hostLVD[2].app[0] DASHVideoResolution:vector ETV
attr recordingmode vector
attr title "Requested video resolution"
vector 340 baselineTestQoS.hostLVD[3].app[0] DASHBufferLength:vector ETV
attr recordingmode vector
attr title "Video buffer length (in seconds)"
vector 341 baselineTestQoS.hostLVD[3].app[0] DASHVideoPlaybackPointer:vector ETV
attr recordingmode vector
attr title "Video playback pointer"
vector 342 baselineTestQoS.hostLVD[3].app[0] DASHVideoBitrate:vector ETV
attr recordingmode vector
attr title "Requested video bitrate"
vector 343 baselineTestQoS.hostLVD[3].app[0] DASHVideoResolution:vector ETV
attr recordingmode vector
attr title "Requested video resolution"
vector 344 baselineTestQoS.hostLVD[4].app[0] DASHBufferLength:vector ETV
attr recordingmode vector
attr title "Video buffer length (in seconds)"
vector 345 baselineTestQoS.hostLVD[4].app[0] DASHVideoPlaybackPointer:vector ETV
attr recordingmode vector
attr title "Video playback pointer"
vector 346 baselineTestQoS.hostLVD[4].app[0] DASHVideoBitrate:vector ETV
attr recordingmode vector
attr title "Requested video bitrate"
vector 347 baselineTestQoS.hostLVD[4].app[0] DASHVideoResolution:vector ETV
attr recordingmode vector
attr title "Requested video resolution"
vector 348 baselineTestQoS.hostLVD[5].app[0] DASHBufferLength:vector ETV
attr recordingmode vector
attr title "Video buffer length (in seconds)"
vector 349 baselineTestQoS.hostLVD[5].app[0] DASHVideoPlaybackPointer:vector ETV
attr recordingmode vector
attr title "Video playback pointer"
vector 350 baselineTestQoS.hostLVD[5].app[0] DASHVideoBitrate:vector ETV
attr recordingmode vector
attr title "Requested video bitrate"
vector 351 baselineTestQoS.hostLVD[5].app[0] DASHVideoResolution:vector ETV
attr recordingmode vector
attr title "Requested video resolution"
vector 352 baselineTestQoS.hostLVD[6].app[0] DASHBufferLength:vector ETV
attr recordingmode vector
attr title "Video buffer length (in seconds)"
vector 353 baselineTestQoS.hostLVD[6].app[0] DASHVideoPlaybackPointer:vector ETV
attr recordingmode vector
attr title "Video playback pointer"
vector 354 baselineTestQoS.hostLVD[6].app[0] DASHVideoBitrate:vector ETV
attr recordingmode vector
attr title "Requested video bitrate"
vector 355 baselineTestQoS.hostLVD[6].app[0] DASHVideoResolution:vector ETV
attr recordingmode vector
attr title "Requested video resolution"
vector 356 baselineTestQoS.hostLVD[7].app[0] DASHBufferLength:vector ETV
attr recordingmode vector
[...]
attr source packetSentToLower
attr title "packets transmitted, packetBytes"
vector 449 baselineTestQoS.router0.ppp[53].ppp rxPkOk:vector(packetBytes) ETV
attr interpolationmode none
attr recordingmode vector(packetBytes)
attr source rxPkOk
attr title "packets received OK, packetBytes"
vector 450 baselineTestQoS.hostSSH[2].ppp[0].ppp txPk:vector(packetBytes) ETV
attr interpolationmode none
attr recordingmode vector(packetBytes)
attr source packetSentToLower
attr title "packets transmitted, packetBytes"
vector 451 baselineTestQoS.router0.ppp[93].ppp rxPkOk:vector(packetBytes) ETV
attr interpolationmode none
attr recordingmode vector(packetBytes)
attr source rxPkOk
attr title "packets received OK, packetBytes"
vector 452 baselineTestQoS.hostLVD[10].app[0] DASHVideoPlaybackStatus:vector ETV
attr recordingmode vector
attr title "Video playback status (playing=1, buffering=0)"
vector 453 baselineTestQoS.hostLVD[10].ppp[0].ppp txPk:vector(packetBytes) ETV
attr interpolationmode none
attr recordingmode vector(packetBytes)
attr source packetSentToLower
attr title "packets transmitted, packetBytes"
vector 454 baselineTestQoS.router0.ppp[68].ppp rxPkOk:vector(packetBytes) ETV
attr interpolationmode none
attr recordingmode vector(packetBytes)
attr source rxPkOk
attr title "packets received OK, packetBytes"
vector 455 baselineTestQoS.serverVIP.ppp[0].ppp txPk:vector(packetBytes) ETV
attr interpolationmode none
attr recordingmode vector(packetBytes)
attr source packetSentToLower
attr title "packets transmitted, packetBytes"
vector 456 baselineTestQoS.router1.ppp[5].ppp rxPkOk:vector(packetBytes) ETV
attr interpolationmode none
attr recordingmode vector(packetBytes)
attr source rxPkOk
attr title "packets received OK, packetBytes"
vector 457 baselineTestQoS.router1.ppp[0].ppp txPk:vector(packetBytes) ETV
attr interpolationmode none
attr recordingmode vector(packetBytes)
attr source packetSentToLower
attr title "packets transmitted, packetBytes"
vector 458 baselineTestQoS.router1.ppp[0].ppp rxPkOk:vector(packetBytes) ETV
attr interpolationmode none
attr recordingmode vector(packetBytes)
attr source rxPkOk
attr title "packets received OK, packetBytes"
vector 459 baselineTestQoS.router1.ppp[1].ppp txPk:vector(packetBytes) ETV
attr interpolationmode none
attr recordingmode vector(packetBytes)
attr source packetSentToLower
attr title "packets transmitted, packetBytes"
vector 460 baselineTestQoS.serverVID.ppp[0].ppp rxPkOk:vector(packetBytes) ETV
attr interpolationmode none
attr recordingmode vector(packetBytes)
attr source rxPkOk
attr title "packets received OK, packetBytes"
vector 461 baselineTestQoS.serverVID.ppp[0].ppp txPk:vector(packetBytes) ETV
attr interpolationmode none
attr recordingmode vector(packetBytes)
attr source packetSentToLower
attr title "packets transmitted, packetBytes"
0	96799 8 0 0 0 0 1 0 0 0 0
1	96807 8 0 0 0 0 1 0 0 0 0
2	96815 8 0 0 0 0 1 0 0 0 0
3	96823 8 0 0 0 0 1 0 0 0 0
4	96831 8 0 0 0 0 1 0 0 0 0
5	96839 8 0 0 0 0 1 0 0 0 0
6	96847 8 0 0 0 0 1 0 0 0 0
7	96855 8 0 0 0 0 1 0 0 0 0
8	96863 8 0 0 0 0 1 0 0 0 0
9	96871 8 0 0 0 0 1 0 0 0 0
10	96879 9 0 0 0 0 1 0 0 0 0
11	96888 9 0 0 0 0 1 0 0 0 0
12	96897 9 0 0 0 0 1 0 0 0 0
13	96906 9 0 0 0 0 1 0 0 0 0
14	96915 9 0 0 0 0 1 0 0 0 0
15	96924 9 0 0 0 0 1 0 0 0 0
16	96933 9 0 0 0 0 1 0 0 0 0
17	96942 9 0 0 0 0 1 0 0 0 0
18	96951 9 0 0 0 0 1 0 0 0 0
19	96960 9 0 0 0 0 1 0 0 0 0
20	96969 9 0 0 0 0 1 0 0 0 0
21	96978 9 0 0 0 0 1 0 0 0 0
22	96987 9 0 0 0 0 1 0 0 0 0
23	96996 9 0 0 0 0 1 0 0 0 0
24	97005 9 0 0 0 0 1 0 0 0 0
25	97014 9 0 0 0 0 1 0 0 0 0
26	97023 9 0 0 0 0 1 0 0 0 0
27	97032 9 0 0 0 0 1 0 0 0 0
28	97041 9 0 0 0 0 1 0 0 0 0
29	97050 9 0 0 0 0 1 0 0 0 0
30	97059 33 0 124 0 0.034063494566 2 0 1 1 1
31	97092 9 0 0 0 0 1 0 0 0 0
32	97101 9 0 0 0 0 1 0 0 0 0
33	97110 9 0 0 0 0 1 0 0 0 0
34	97119 33 0 114 0 0.032703760127 2 0 1 1 1
35	97152 9 0 0 0 0 1 0 0 0 0
36	97161 32 0 85 0 0.011625748428 2 0 1 1 1
37	97193 9 0 0 0 0 1 0 0 0 0
38	97202 9 0 0 0 0 1 0 0 0 0
39	97211 9 0 0 0 0 1 0 0 0 0
40	97220 9 0 0 0 0 1 0 0 0 0
41	97229 9 0 0 0 0 1 0 0 0 0
42	97238 9 0 0 0 0 1 0 0 0 0
43	97247 9 0 0 0 0 1 0 0 0 0
44	97256 32 0 93 0 0.012192073078 2 0 1 1 1
45	97288 9 0 0 0 0 1 0 0 0 0
46	97297 9 0 0 0 0 1 0 0 0 0
47	97306 9 0 0 0 0 1 0 0 0 0
48	97315 9 0 0 0 0 1 0 0 0 0
49	97324 9 0 0 0 0 1 0 0 0 0
50	97333 9 0 0 0 0 1 0 0 0 0
51	97342 9 0 0 0 0 1 0 0 0 0
52	97351 33 0 134 0 0.038820442986 2 0 1 1 1
53	97384 9 0 0 0 0 1 0 0 0 0
54	97393 9 0 0 0 0 1 0 0 0 0
55	97402 9 0 0 0 0 1 0 0 0 0
56	97411 9 0 0 0 0 1 0 0 0 0
57	97420 9 0 0 0 0 1 0 0 0 0
58	97429 9 0 0 0 0 1 0 0 0 0
59	97438 9 0 0 0 0 1 0 0 0 0
60	97447 9 0 0 0 0 1 0 0 0 0
61	97456 9 0 0 0 0 1 0 0 0 0
62	97465 9 0 0 0 0 1 0 0 0 0
63	97474 9 0 0 0 0 1 0 0 0 0
64	97483 9 0 0 0 0 1 0 0 0 0
65	97492 9 0 0 0 0 1 0 0 0 0
66	97501 9 0 0 0 0 1 0 0 0 0
67	97510 33 0 154 0 0.045153943719 2 0 1 1 1
68	97543 9 0 0 0 0 1 0 0 0 0
69	97552 9 0 0 0 0 1 0 0 0 0
70	97561 9 0 0 0 0 1 0 0 0 0
71	97570 9 0 0 0 0 1 0 0 0 0
72	97579 9 0 0 0 0 1 0 0 0 0
73	97588 9 0 0 0 0 1 0 0 0 0
74	97597 9 0 0 0 0 1 0 0 0 0
75	97606 9 0 0 0 0 1 0 0 0 0
76	97615 9 0 0 0 0 1 0 0 0 0
77	97624 9 0 0 0 0 1 0 0 0 0
78	97633 9 0 0 0 0 1 0 0 0 0
79	97642 9 0 0 0 0 1 0 0 0 0
80	97651 9 0 0 0 0 1 0 0 0 0
81	97660 9 0 0 0 0 1 0 0 0 0
82	97669 9 0 0 0 0 1 0 0 0 0
83	97678 9 0 0 0 0 1 0 0 0 0
84	97687 9 0 0 0 0 1 0 0 0 0
85	97696 9 0 0 0 0 1 0 0 0 0
86	97705 9 0 0 0 0 1 0 0 0 0
87	97714 9 0 0 0 0 1 0 0 0 0
88	97723 9 0 0 0 0 1 0 0 0 0
89	97732 9 0 0 0 0 1 0 0 0 0
90	97741 9 0 0 0 0 1 0 0 0 0
91	97750 9 0 0 0 0 1 0 0 0 0
92	97759 33 0 144 0 0.044805930138 2 0 1 1 1
93	97792 9 0 0 0 0 1 0 0 0 0
94	97801 9 0 0 0 0 1 0 0 0 0
95	97810 33 0 103 0 0.022245716495 2 0 1 1 1
96	97843 9 0 0 0 0 1 0 0 0 0
97	97852 9 0 0 0 0 1 0 0 0 0
98	97861 9 0 0 0 0 1 0 0 0 0
99	97870 9 0 0 0 0 1 0 0 0 0
100	97879 10 0 0 0 0 1 0 0 0 0
101	97889 10 0 0 0 0 1 0 0 0 0
102	97899 12 0 0 0 0 1 287 287 287 82369
103	97911 12 0 0 0 0 1 360 360 360 129600
104	97923 10 0 0 0 0 1 0 0 0 0
105	97933 10 0 0 0 0 1 0 0 0 0
106	97943 12 0 0 0 0 1 359 359 359 128881
107	97955 12 0 0 0 0 1 360 360 360 129600
108	97967 10 0 0 0 0 1 0 0 0 0
109	97977 10 0 0 0 0 1 0 0 0 0
110	97987 12 0 0 0 0 1 251 251 251 63001
111	97999 12 0 0 0 0 1 360 360 360 129600
112	98011 10 0 0 0 0 1 0 0 0 0
113	98021 10 0 0 0 0 1 0 0 0 0
114	98031 12 0 0 0 0 1 272 272 272 73984
115	98043 12 0 0 0 0 1 360 360 360 129600
116	98055 10 0 0 0 0 1 0 0 0 0
117	98065 10 0 0 0 0 1 0 0 0 0
118	98075 12 0 0 0 0 1 397 397 397 157609
119	98087 12 0 0 0 0 1 360 360 360 129600
120	98099 10 0 0 0 0 1 0 0 0 0
121	98109 10 0 0 0 0 1 0 0 0 0
122	98119 12 0 0 0 0 1 360 360 360 129600
123	98131 12 0 0 0 0 1 360 360 360 129600
124	98143 10 0 0 0 0 1 0 0 0 0
125	98153 10 0 0 0 0 1 0 0 0 0
126	98163 12 0 0 0 0 1 338 338 338 114244
127	98175 12 0 0 0 0 1 360 360 360 129600
128	98187 10 0 0 0 0 1 0 0 0 0
129	98197 10 0 0 0 0 1 0 0 0 0
130	98207 12 0 0 0 0 1 338 338 338 114244
131	98219 12 0 0 0 0 1 360 360 360 129600
132	98231 10 0 0 0 0 1 0 0 0 0
133	98241 10 0 0 0 0 1 0 0 0 0
134	98251 12 0 0 0 0 1 299 299 299 89401
135	98263 12 0 0 0 0 1 360 360 360 129600
136	98275 10 0 0 0 0 1 0 0 0 0
137	98285 10 0 0 0 0 1 0 0 0 0
138	98295 12 0 0 0 0 1 302 302 302 91204
139	98307 12 0 0 0 0 1 360 360 360 129600
140	98319 10 0 0 0 0 1 0 0 0 0
141	98329 10 0 0 0 0 1 0 0 0 0
142	98339 12 0 0 0 0 1 339 339 339 114921
143	98351 12 0 0 0 0 1 360 360 360 129600
144	98363 10 0 0 0 0 1 0 0 0 0
145	98373 10 0 0 0 0 1 0 0 0 0
146	98383 12 0 0 0 0 1 401 401 401 160801
147	98395 12 0 0 0 0 1 360 360 360 129600
148	98407 10 0 0 0 0 1 0 0 0 0
149	98417 10 0 0 0 0 1 0 0 0 0
150	98427 12 0 0 0 0 1 303 303 303 91809
151	98439 12 0 0 0 0 1 360 360 360 129600
152	98451 10 0 0 0 0 1 0 0 0 0
153	98461 10 0 0 0 0 1 0 0 0 0
154	98471 12 0 0 0 0 1 382 382 382 145924
155	98483 12 0 0 0 0 1 360 360 360 129600
156	98495 10 0 0 0 0 1 0 0 0 0
157	98505 10 0 0 0 0 1 0 0 0 0
158	98515 12 0 0 0 0 1 339 339 339 114921
159	98527 12 0 0 0 0 1 360 360 360 129600
160	98539 10 0 0 0 0 1 0 0 0 0
161	98549 10 0 0 0 0 1 0 0 0 0
162	98559 12 0 0 0 0 1 343 343 343 117649
163	98571 12 0 0 0 0 1 360 360 360 129600
164	98583 10 0 0 0 0 1 0 0 0 0
165	98593 10 0 0 0 0 1 0 0 0 0
166	98603 12 0 0 0 0 1 271 271 271 73441
167	98615 12 0 0 0 0 1 360 360 360 129600
168	98627 10 0 0 0 0 1 0 0 0 0
169	98637 10 0 0 0 0 1 0 0 0 0
170	98647 12 0 0 0 0 1 361 361 361 130321
171	98659 12 0 0 0 0 1 360 360 360 129600
172	98671 10 0 0 0 0 1 0 0 0 0
173	98681 10 0 0 0 0 1 0 0 0 0
174	98691 12 0 0 0 0 1 366 366 366 133956
175	98703 12 0 0 0 0 1 360 360 360 129600
176	98715 10 0 0 0 0 1 0 0 0 0
177	98725 10 0 0 0 0 1 0 0 0 0
178	98735 12 0 0 0 0 1 288 288 288 82944
179	98747 12 0 0 0 0 1 360 360 360 129600
180	98759 10 0 0 0 0 1 0 0 0 0
181	98769 10 0 0 0 0 1 0 0 0 0
182	98779 12 0 0 0 0 1 358 358 358 128164
183	98791 12 0 0 0 0 1 360 360 360 129600
184	98803 10 0 0 0 0 1 0 0 0 0
185	98813 10 0 0 0 0 1 0 0 0 0
186	98823 12 0 0 0 0 1 328 328 328 107584
187	98835 12 0 0 0 0 1 360 360 360 129600
188	98847 10 0 0 0 0 1 0 0 0 0
189	98857 10 0 0 0 0 1 0 0 0 0
190	98867 12 0 0 0 0 1 372 372 372 138384
191	98879 12 0 0 0 0 1 360 360 360 129600
192	98891 10 0 0 0 0 1 0 0 0 0
193	98901 10 0 0 0 0 1 0 0 0 0
194	98911 12 0 0 0 0 1 339 339 339 114921
195	98923 12 0 0 0 0 1 360 360 360 129600
196	98935 10 0 0 0 0 1 0 0 0 0
197	98945 10 0 0 0 0 1 0 0 0 0
198	98955 12 0 0 0 0 1 402 402 402 161604
199	98967 12 0 0 0 0 1 360 360 360 129600
200	98979 10 0 0 0 0 1 0 0 0 0
201	98989 10 0 0 0 0 1 0 0 0 0
202	98999 12 0 0 0 0 1 343 343 343 117649
203	99011 12 0 0 0 0 1 360 360 360 129600
204	99023 10 0 0 0 0 1 0 0 0 0
205	99033 10 0 0 0 0 1 0 0 0 0
206	99043 12 0 0 0 0 1 346 346 346 119716
207	99055 12 0 0 0 0 1 360 360 360 129600
208	99067 10 0 0 0 0 1 0 0 0 0
209	99077 10 0 0 0 0 1 0 0 0 0
210	99087 12 0 0 0 0 1 350 350 350 122500
211	99099 12 0 0 0 0 1 360 360 360 129600
212	99111 10 0 0 0 0 1 0 0 0 0
213	99121 10 0 0 0 0 1 0 0 0 0
214	99131 12 0 0 0 0 1 371 371 371 137641
215	99143 12 0 0 0 0 1 360 360 360 129600
216	99155 10 0 0 0 0 1 0 0 0 0
217	99165 10 0 0 0 0 1 0 0 0 0
218	99175 12 0 0 0 0 1 377 377 377 142129
219	99187 12 0 0 0 0 1 360 360 360 129600
220	99199 10 0 0 0 0 1 0 0 0 0
221	99209 10 0 0 0 0 1 0 0 0 0
222	99219 12 0 0 0 0 1 263 263 263 69169
223	99231 12 0 0 0 0 1 360 360 360 129600
224	99243 10 0 0 0 0 1 0 0 0 0
225	99253 10 0 0 0 0 1 0 0 0 0
226	99263 12 0 0 0 0 1 423 423 423 178929
227	99275 12 0 0 0 0 1 360 360 360 129600
228	99287 10 0 0 0 0 1 0 0 0 0
229	99297 10 0 0 0 0 1 0 0 0 0
230	99307 12 0 0 0 0 1 426 426 426 181476
231	99319 12 0 0 0 0 1 360 360 360 129600
232	99331 10 0 0 0 0 1 0 0 0 0
233	99341 10 0 0 0 0 1 0 0 0 0
234	99351 12 0 0 0 0 1 364 364 364 132496
235	99363 12 0 0 0 0 1 360 360 360 129600
236	99375 10 0 0 0 0 1 0 0 0 0
237	99385 10 0 0 0 0 1 0 0 0 0
238	99395 12 0 0 0 0 1 274 274 274 75076
239	99407 12 0 0 0 0 1 360 360 360 129600
240	99419 10 0 0 0 0 1 0 0 0 0
241	99429 10 0 0 0 0 1 0 0 0 0
242	99439 12 0 0 0 0 1 319 319 319 101761
243	99451 12 0 0 0 0 1 360 360 360 129600
244	99463 10 0 0 0 0 1 0 0 0 0
245	99473 10 0 0 0 0 1 0 0 0 0
246	99483 12 0 0 0 0 1 372 372 372 138384
247	99495 12 0 0 0 0 1 360 360 360 129600
248	99507 10 0 0 0 0 1 0 0 0 0
249	99517 10 0 0 0 0 1 0 0 0 0
250	99527 12 0 0 0 0 1 328 328 328 107584
251	99539 12 0 0 0 0 1 360 360 360 129600
252	99551 10 0 0 0 0 1 0 0 0 0
253	99561 10 0 0 0 0 1 0 0 0 0
254	99571 12 0 0 0 0 1 365 365 365 133225
255	99583 12 0 0 0 0 1 360 360 360 129600
256	99595 10 0 0 0 0 1 0 0 0 0
257	99605 10 0 0 0 0 1 0 0 0 0
258	99615 12 0 0 0 0 1 356 356 356 126736
259	99627 12 0 0 0 0 1 360 360 360 129600
260	99639 10 0 0 0 0 1 0 0 0 0
261	99649 10 0 0 0 0 1 0 0 0 0
262	99659 12 0 0 0 0 1 212 212 212 44944
263	99671 12 0 0 0 0 1 360 360 360 129600
264	99683 10 0 0 0 0 1 0 0 0 0
265	99693 10 0 0 0 0 1 0 0 0 0
266	99703 12 0 0 0 0 1 220 220 220 48400
267	99715 12 0 0 0 0 1 360 360 360 129600
268	99727 10 0 0 0 0 1 0 0 0 0
269	99737 10 0 0 0 0 1 0 0 0 0
270	99747 12 0 0 0 0 1 289 289 289 83521
271	99759 12 0 0 0 0 1 360 360 360 129600
272	99771 10 0 0 0 0 1 0 0 0 0
273	99781 10 0 0 0 0 1 0 0 0 0
274	99791 12 0 0 0 0 1 341 341 341 116281
275	99803 12 0 0 0 0 1 360 360 360 129600
276	99815 10 0 0 0 0 1 0 0 0 0
277	99825 10 0 0 0 0 1 0 0 0 0
278	99835 12 0 0 0 0 1 415 415 415 172225
279	99847 12 0 0 0 0 1 360 360 360 129600
280	99859 10 0 0 0 0 1 0 0 0 0
281	99869 10 0 0 0 0 1 0 0 0 0
282	99879 12 0 0 0 0 1 287 287 287 82369
283	99891 12 0 0 0 0 1 360 360 360 129600
284	99903 10 0 0 0 0 1 0 0 0 0
285	99913 10 0 0 0 0 1 0 0 0 0
286	99923 12 0 0 0 0 1 265 265 265 70225
287	99935 12 0 0 0 0 1 360 360 360 129600
288	99947 10 0 0 0 0 1 0 0 0 0
289	99957 10 0 0 0 0 1 0 0 0 0
290	99967 12 0 0 0 0 1 386 386 386 148996
291	99979 12 0 0 0 0 1 360 360 360 129600
292	99991 10 0 0 0 0 1 0 0 0 0
293	100001 10 0 0 0 0 1 0 0 0 0
294	100011 12 0 0 0 0 1 243 243 243 59049
295	100023 12 0 0 0 0 1 360 360 360 129600
296	100035 10 0 0 0 0 1 0 0 0 0
297	100045 10 0 0 0 0 1 0 0 0 0
298	100055 12 0 0 0 0 1 315 315 315 99225
299	100067 12 0 0 0 0 1 360 360 360 129600
300	100079 10 0 0 0 0 1 0 0 0 0
301	100089 10 0 0 0 0 1 0 0 0 0
302	100099 12 0 0 0 0 1 317 317 317 100489
303	100111 12 0 0 0 0 1 360 360 360 129600
304	100123 10 0 0 0 0 1 0 0 0 0
305	100133 10 0 0 0 0 1 0 0 0 0
306	100143 12 0 0 0 0 1 255 255 255 65025
307	100155 12 0 0 0 0 1 360 360 360 129600
308	100167 10 0 0 0 0 1 0 0 0 0
309	100177 10 0 0 0 0 1 0 0 0 0
310	100187 12 0 0 0 0 1 368 368 368 135424
311	100199 12 0 0 0 0 1 360 360 360 129600
312	100211 10 0 0 0 0 1 0 0 0 0
313	100221 10 0 0 0 0 1 0 0 0 0
314	100231 12 0 0 0 0 1 346 346 346 119716
315	100243 12 0 0 0 0 1 360 360 360 129600
316	100255 10 0 0 0 0 1 0 0 0 0
317	100265 10 0 0 0 0 1 0 0 0 0
318	100275 12 0 0 0 0 1 214 214 214 45796
319	100287 12 0 0 0 0 1 360 360 360 129600
320	100299 10 0 0 0 0 1 0 0 0 0
321	100309 10 0 0 0 0 1 0 0 0 0
322	100319 12 0 0 0 0 1 355 355 355 126025
323	100331 12 0 0 0 0 1 360 360 360 129600
324	100343 10 0 0 0 0 1 0 0 0 0
325	100353 10 0 0 0 0 1 0 0 0 0
326	100363 12 0 0 0 0 1 292 292 292 85264
327	100375 12 0 0 0 0 1 360 360 360 129600
328	100387 10 0 0 0 0 1 0 0 0 0
329	100397 10 0 0 0 0 1 0 0 0 0
330	100407 12 0 0 0 0 1 111 111 111 12321
331	100419 12 0 0 0 0 1 240 240 240 57600
332	100431 10 0 0 0 0 1 0 0 0 0
333	100441 10 0 0 0 0 1 0 0 0 0
334	100451 12 0 0 0 0 1 112 112 112 12544
335	100463 12 0 0 0 0 1 240 240 240 57600
336	100475 10 0 0 0 0 1 0 0 0 0
337	100485 10 0 0 0 0 1 0 0 0 0
338	100495 12 0 0 0 0 1 120 120 120 14400
339	100507 12 0 0 0 0 1 240 240 240 57600
340	100519 10 0 0 0 0 1 0 0 0 0
341	100529 10 0 0 0 0 1 0 0 0 0
342	100539 12 0 0 0 0 1 117 117 117 13689
343	100551 12 0 0 0 0 1 240 240 240 57600
344	100563 10 0 0 0 0 1 0 0 0 0
345	100573 10 0 0 0 0 1 0 0 0 0
346	100583 11 0 0 0 0 1 85 85 85 7225
347	100594 12 0 0 0 0 1 240 240 240 57600
348	100606 10 0 0 0 0 1 0 0 0 0
349	100616 10 0 0 0 0 1 0 0 0 0
350	100626 11 0 0 0 0 1 82 82 82 6724
351	100637 12 0 0 0 0 1 240 240 240 57600
352	100649 10 0 0 0 0 1 0 0 0 0
353	100659 10 0 0 0 0 1 0 0 0 0
354	100669 12 0 0 0 0 1 101 101 101 10201
355	100681 12 0 0 0 0 1 240 240 240 57600
356	100693 10 0 0 0 0 1 0 0 0 0
357	100703 10 0 0 0 0 1 0 0 0 0
358	100713 11 0 0 0 0 1 88 88 88 7744
359	100724 12 0 0 0 0 1 240 240 240 57600
360	100736 10 0 0 0 0 1 0 0 0 0
361	100746 10 0 0 0 0 1 0 0 0 0
362	100756 11 0 0 0 0 1 83 83 83 6889
363	100767 12 0 0 0 0 1 240 240 240 57600
364	100779 10 0 0 0 0 1 0 0 0 0
365	100789 10 0 0 0 0 1 0 0 0 0
366	100799 11 0 0 0 0 1 84 84 84 7056
367	100810 12 0 0 0 0 1 240 240 240 57600
368	100822 10 0 0 0 0 1 0 0 0 0
369	100832 10 0 0 0 0 1 0 0 0 0
370	100842 12 0 0 0 0 1 111 111 111 12321
371	100854 12 0 0 0 0 1 240 240 240 57600
372	100866 10 0 0 0 0 1 0 0 0 0
373	100876 10 0 0 0 0 1 0 0 0 0
374	100886 12 0 0 0 0 1 117 117 117 13689
375	100898 12 0 0 0 0 1 240 240 240 57600
376	100910 10 0 0 0 0 1 0 0 0 0
377	100920 10 0 0 0 0 1 0 0 0 0
378	100930 12 0 0 0 0 1 107 107 107 11449
379	100942 12 0 0 0 0 1 240 240 240 57600
380	100954 10 0 0 0 0 1 0 0 0 0
381	100964 10 0 0 0 0 1 0 0 0 0
382	100974 12 0 0 0 0 1 118 118 118 13924
383	100986 12 0 0 0 0 1 240 240 240 57600
384	100998 10 0 0 0 0 1 0 0 0 0
385	101008 10 0 0 0 0 1 0 0 0 0
386	101018 12 0 0 0 0 1 108 108 108 11664
387	101030 12 0 0 0 0 1 240 240 240 57600
388	101042 10 0 0 0 0 1 0 0 0 0
389	101052 10 0 0 0 0 1 0 0 0 0
390	101062 12 0 0 0 0 1 103 103 103 10609
391	101074 12 0 0 0 0 1 240 240 240 57600
392	101086 10 0 0 0 0 1 0 0 0 0
393	101096 10 0 0 0 0 1 0 0 0 0
394	101106 12 0 0 0 0 1 100 100 100 10000
395	101118 12 0 0 0 0 1 240 240 240 57600
396	101130 10 0 0 0 0 1 0 0 0 0
397	101140 10 0 0 0 0 1 0 0 0 0
398	101150 12 0 0 0 0 1 137 137 137 18769
399	101162 12 0 0 0 0 1 240 240 240 57600
400	101174 10 0 0 0 0 1 0 0 0 0
401	101184 10 0 0 0 0 1 0 0 0 0
402	101194 11 0 0 0 0 1 95 95 95 9025
403	101205 12 0 0 0 0 1 240 240 240 57600
404	101217 10 0 0 0 0 1 0 0 0 0
405	101227 10 0 0 0 0 1 0 0 0 0
406	101237 11 0 0 0 0 1 80 80 80 6400
407	101248 12 0 0 0 0 1 240 240 240 57600
408	101260 10 0 0 0 0 1 0 0 0 0
409	101270 10 0 0 0 0 1 0 0 0 0
410	101280 12 0 0 0 0 1 100 100 100 10000
411	101292 12 0 0 0 0 1 240 240 240 57600
412	101304 10 0 0 0 0 1 0 0 0 0
413	101314 10 0 0 0 0 1 0 0 0 0
414	101324 12 0 0 0 0 1 107 107 107 11449
415	101336 12 0 0 0 0 1 240 240 240 57600
416	101348 10 0 0 0 0 1 0 0 0 0
417	101358 10 0 0 0 0 1 0 0 0 0
418	101368 12 0 0 0 0 1 107 107 107 11449
419	101380 12 0 0 0 0 1 240 240 240 57600
420	101392 10 0 0 0 0 1 0 0 0 0
421	101402 10 0 0 0 0 1 0 0 0 0
422	101412 12 0 0 0 0 1 103 103 103 10609
423	101424 12 0 0 0 0 1 240 240 240 57600
424	101436 10 0 0 0 0 1 0 0 0 0
425	101446 10 0 0 0 0 1 0 0 0 0
426	101456 11 0 0 0 0 1 92 92 92 8464
427	101467 12 0 0 0 0 1 240 240 240 57600
428	101479 10 0 0 0 0 1 0 0 0 0
429	101489 10 0 0 0 0 1 0 0 0 0
430	101499 12 0 0 0 0 1 101 101 101 10201
431	101511 12 0 0 0 0 1 240 240 240 57600
432	101523 24 85 85 0.011625748428 0.011625748428 1 0 0 0 0
433	101547 25 88 88 0.011625748428 0.011625748428 1 51 51 51 2601
434	101572 25 90 90 0.011626256428 0.011626256428 1 51 51 51 2601
435	101597 24 93 93 0.012192073078 0.012192073078 1 0 0 0 0
436	101621 25 96 96 0.012192073078 0.012192073078 1 51 51 51 2601
437	101646 25 98 98 0.012192581078 0.012192581078 1 51 51 51 2601
438	101671 182 100 152 0.012192581078 0.044906438138 7 51 51 357 18207
439	101853 26 106 106 0.022245716495 0.022245716495 1 51 51 51 2601
440	101879 26 108 108 0.022246224495 0.022246224495 1 51 51 51 2601
441	101905 25 114 114 0.032703760127 0.032703760127 1 0 0 0 0
442	101930 26 117 117 0.032703760127 0.032703760127 1 51 51 51 2601
443	101956 26 119 119 0.032704268127 0.032704268127 1 51 51 51 2601
444	101982 25 124 124 0.034063494566 0.034063494566 1 0 0 0 0
445	102007 26 127 127 0.034063494566 0.034063494566 1 51 51 51 2601
446	102033 26 129 129 0.034064002566 0.034064002566 1 51 51 51 2601
447	102059 25 134 134 0.038820442986 0.038820442986 1 0 0 0 0
448	102084 26 137 137 0.038820442986 0.038820442986 1 51 51 51 2601
449	102110 26 139 139 0.038820950986 0.038820950986 1 51 51 51 2601
450	102136 26 147 147 0.044805930138 0.044805930138 1 51 51 51 2601
451	102162 26 149 149 0.044806438138 0.044806438138 1 51 51 51 2601
452	102188 25 154 154 0.045153943719 0.045153943719 1 0 0 0 0
453	102213 26 157 157 0.045153943719 0.045153943719 1 51 51 51 2601
454	102239 26 159 159 0.045154451719 0.045154451719 1 51 51 51 2601
455	102265 26 165 165 0.050187465688 0.050187465688 1 75 75 75 5625
456	102291 26 167 167 0.050187625688 0.050187625688 1 75 75 75 5625
457	102317 26 170 170 0.050287625688 0.050287625688 1 75 75 75 5625
458	102343 26 172 172 0.052196661078 0.052196661078 1 51 51 51 2601
459	102369 26 174 174 0.052196661078 0.052196661078 1 51 51 51 2601
460	102395 26 176 176 0.052196801878 0.052196801878 1 51 51 51 2601
461	102421 26 180 180 0.052196801878 0.052196801878 1 51 51 51 2601

