version 3
run liteCbaselineTestExampleTopoVisualizer-0-20230220-20:49:44-17602
attr configname liteCbaselineTestExampleTopoVisualizer
attr datetime 20230220-20:49:44
attr datetimef 20230220-204944
attr experiment liteCbaselineTestExampleTopoVisualizer
attr inifile simulations/QoEStudies.ini
attr iterationvars $numCli=1
attr iterationvarsd numCli=1
attr iterationvarsf numCli=1-
attr measurement $numCli=1
attr network baselineTestQoS
attr processid 17602
attr repetition 0
attr replication #0
attr resultdir results
attr runnumber 0
attr seedset 0
itervar numCli 1
config image-path ../inet/images
config description "Visualize base topology"
config network baselineTestQoS
config sim-time-limit 400s
config output-vector-file results/liteCbaselineTestExampleTopoVisualizer/liteCbaselineTestExampleTopoVisualizer-0.vec
config output-scalar-file results/liteCbaselineTestExampleTopoVisualizer/liteCbaselineTestExampleTopoVisualizer-0.sca
config *.visualizer.*.interfaceTableVisualizer.displayInterfaceTables false
config **.crcMode "\"computed\""
config *.nVID 1
config *.nLVD 1
config *.nFDO 1
config *.nSSH 1
config *.nVIP 1
config *.ncVIP 1
config **.numApps 0
config sim-time-limit 250s
config num-rngs 1
config seed-0-mt 5
config output-scalar-file-append false
config record-eventlog false
config *.visualizer.*.interfaceTableVisualizer.displayInterfaceTables true
config **.tcp.typename Tcp
config **.udp.typename Udp
config **.packetCapacity 500
config **.tcp.advertisedWindow 65535
config **.tcp.delayedAcksEnabled false
config **.tcp.nagleEnabled true
config **.tcp.limitedTransmitEnabled false
config **.tcp.increasedIWEnabled false
config **.tcp.sackSupport false
config **.tcp.windowScalingSupport false
config **.tcp.timestampSupport false
config **.tcp.mss 1452
config **.tcp.tcpAlgorithmClass "\"TcpReno\""
config **.tcp.*.*.vector-recording true
config **.tcp.*.rtt.result-recording-modes +vector
config **.tcp.*.*.result-recording-modes -vector
config **.host*.app*.*.vector-recording true
config **.ppp.*xPk*.vector-recording true
config **.vector-recording false

par baselineTestQoS.router0.pppg$o[0].connFIX0 typename "\"improved5gns.simulations.baselineTestQoS.C\""
par baselineTestQoS.router0.pppg$o[0].connFIX0 disabled false
attr mutable ""
par baselineTestQoS.router0.pppg$o[0].connFIX0 delay 0s
attr mutable ""
attr unit s
par baselineTestQoS.router0.pppg$o[0].connFIX0 datarate 0bps
attr mutable ""
attr unit bps
par baselineTestQoS.router0.pppg$o[0].connFIX0 ber 0
attr mutable ""
par baselineTestQoS.router0.pppg$o[0].connFIX0 per 0
attr mutable ""
par baselineTestQoS.router1.pppg$o[0].connFIX0 typename "\"improved5gns.simulations.baselineTestQoS.C\""
par baselineTestQoS.router1.pppg$o[0].connFIX0 disabled false
attr mutable ""
par baselineTestQoS.router1.pppg$o[0].connFIX0 delay 0s
attr mutable ""
attr unit s
par baselineTestQoS.router1.pppg$o[0].connFIX0 datarate 0bps
attr mutable ""
attr unit bps
par baselineTestQoS.router1.pppg$o[0].connFIX0 ber 0
attr mutable ""
par baselineTestQoS.router1.pppg$o[0].connFIX0 per 0
attr mutable ""
par baselineTestQoS.hostVID[0].pppg$o[0].channel typename "\"improved5gns.simulations.baselineTestQoS.C\""
par baselineTestQoS.hostVID[0].pppg$o[0].channel disabled false
attr mutable ""
par baselineTestQoS.hostVID[0].pppg$o[0].channel delay 1e-07s
attr mutable ""
attr unit s
par baselineTestQoS.hostVID[0].pppg$o[0].channel datarate 1e+09bps
attr mutable ""
attr unit bps
par baselineTestQoS.hostVID[0].pppg$o[0].channel ber 0
attr mutable ""
par baselineTestQoS.hostVID[0].pppg$o[0].channel per 0
attr mutable ""
par baselineTestQoS.router0.pppg$o[1].channel typename "\"improved5gns.simulations.baselineTestQoS.C\""
par baselineTestQoS.router0.pppg$o[1].channel disabled false
attr mutable ""
par baselineTestQoS.router0.pppg$o[1].channel delay 1e-07s
attr mutable ""
attr unit s
par baselineTestQoS.router0.pppg$o[1].channel datarate 1e+09bps
attr mutable ""
attr unit bps
par baselineTestQoS.router0.pppg$o[1].channel ber 0
attr mutable ""
par baselineTestQoS.router0.pppg$o[1].channel per 0
attr mutable ""
par baselineTestQoS.hostLVD[0].pppg$o[0].channel typename "\"improved5gns.simulations.baselineTestQoS.C\""
par baselineTestQoS.hostLVD[0].pppg$o[0].channel disabled false
attr mutable ""
par baselineTestQoS.hostLVD[0].pppg$o[0].channel delay 1e-07s
attr mutable ""
attr unit s
par baselineTestQoS.hostLVD[0].pppg$o[0].channel datarate 1e+09bps
attr mutable ""
attr unit bps
par baselineTestQoS.hostLVD[0].pppg$o[0].channel ber 0
attr mutable ""
par baselineTestQoS.hostLVD[0].pppg$o[0].channel per 0
attr mutable ""
par baselineTestQoS.router0.pppg$o[2].channel typename "\"improved5gns.simulations.baselineTestQoS.C\""
par baselineTestQoS.router0.pppg$o[2].channel disabled false
attr mutable ""
par baselineTestQoS.router0.pppg$o[2].channel delay 1e-07s
attr mutable ""
attr unit s
par baselineTestQoS.router0.pppg$o[2].channel datarate 1e+09bps
attr mutable ""
attr unit bps
par baselineTestQoS.router0.pppg$o[2].channel ber 0
attr mutable ""
par baselineTestQoS.router0.pppg$o[2].channel per 0
attr mutable ""
par baselineTestQoS.hostFDO[0].pppg$o[0].channel typename "\"improved5gns.simulations.baselineTestQoS.C\""
par baselineTestQoS.hostFDO[0].pppg$o[0].channel disabled false
attr mutable ""
par baselineTestQoS.hostFDO[0].pppg$o[0].channel delay 1e-07s
attr mutable ""
attr unit s
par baselineTestQoS.hostFDO[0].pppg$o[0].channel datarate 1e+09bps
attr mutable ""
attr unit bps
par baselineTestQoS.hostFDO[0].pppg$o[0].channel ber 0
attr mutable ""
par baselineTestQoS.hostFDO[0].pppg$o[0].channel per 0
attr mutable ""
par baselineTestQoS.router0.pppg$o[3].channel typename "\"improved5gns.simulations.baselineTestQoS.C\""
par baselineTestQoS.router0.pppg$o[3].channel disabled false
attr mutable ""
par baselineTestQoS.router0.pppg$o[3].channel delay 1e-07s
attr mutable ""
attr unit s
par baselineTestQoS.router0.pppg$o[3].channel datarate 1e+09bps
attr mutable ""
attr unit bps
par baselineTestQoS.router0.pppg$o[3].channel ber 0
attr mutable ""
par baselineTestQoS.router0.pppg$o[3].channel per 0
attr mutable ""
par baselineTestQoS.hostSSH[0].pppg$o[0].channel typename "\"improved5gns.simulations.baselineTestQoS.C\""
par baselineTestQoS.hostSSH[0].pppg$o[0].channel disabled false
attr mutable ""
par baselineTestQoS.hostSSH[0].pppg$o[0].channel delay 1e-07s
attr mutable ""
attr unit s
par baselineTestQoS.hostSSH[0].pppg$o[0].channel datarate 1e+09bps
attr mutable ""
attr unit bps
par baselineTestQoS.hostSSH[0].pppg$o[0].channel ber 0
attr mutable ""
par baselineTestQoS.hostSSH[0].pppg$o[0].channel per 0
attr mutable ""
par baselineTestQoS.router0.pppg$o[4].channel typename "\"improved5gns.simulations.baselineTestQoS.C\""
par baselineTestQoS.router0.pppg$o[4].channel disabled false
attr mutable ""
par baselineTestQoS.router0.pppg$o[4].channel delay 1e-07s
attr mutable ""
attr unit s
par baselineTestQoS.router0.pppg$o[4].channel datarate 1e+09bps
attr mutable ""
attr unit bps
par baselineTestQoS.router0.pppg$o[4].channel ber 0
attr mutable ""
par baselineTestQoS.router0.pppg$o[4].channel per 0
attr mutable ""
par baselineTestQoS.hostVIP[0].pppg$o[0].channel typename "\"improved5gns.simulations.baselineTestQoS.C\""
par baselineTestQoS.hostVIP[0].pppg$o[0].channel disabled false
attr mutable ""
par baselineTestQoS.hostVIP[0].pppg$o[0].channel delay 1e-07s
attr mutable ""
attr unit s
par baselineTestQoS.hostVIP[0].pppg$o[0].channel datarate 1e+09bps
attr mutable ""
attr unit bps
par baselineTestQoS.hostVIP[0].pppg$o[0].channel ber 0
attr mutable ""
par baselineTestQoS.hostVIP[0].pppg$o[0].channel per 0
attr mutable ""
par baselineTestQoS.router0.pppg$o[5].channel typename "\"improved5gns.simulations.baselineTestQoS.C\""
par baselineTestQoS.router0.pppg$o[5].channel disabled false
attr mutable ""
par baselineTestQoS.router0.pppg$o[5].channel delay 1e-07s
attr mutable ""
attr unit s
par baselineTestQoS.router0.pppg$o[5].channel datarate 1e+09bps
attr mutable ""
attr unit bps
par baselineTestQoS.router0.pppg$o[5].channel ber 0
attr mutable ""
par baselineTestQoS.router0.pppg$o[5].channel per 0
attr mutable ""
par baselineTestQoS.hostcVIP[0].pppg$o[0].channel typename "\"improved5gns.simulations.baselineTestQoS.C\""
par baselineTestQoS.hostcVIP[0].pppg$o[0].channel disabled false
attr mutable ""
par baselineTestQoS.hostcVIP[0].pppg$o[0].channel delay 1e-07s
attr mutable ""
attr unit s
par baselineTestQoS.hostcVIP[0].pppg$o[0].channel datarate 1e+09bps
attr mutable ""
attr unit bps
par baselineTestQoS.hostcVIP[0].pppg$o[0].channel ber 0
attr mutable ""
par baselineTestQoS.hostcVIP[0].pppg$o[0].channel per 0
attr mutable ""
par baselineTestQoS.router0.pppg$o[6].channel typename "\"improved5gns.simulations.baselineTestQoS.C\""
par baselineTestQoS.router0.pppg$o[6].channel disabled false
attr mutable ""
par baselineTestQoS.router0.pppg$o[6].channel delay 1e-07s
attr mutable ""
attr unit s
par baselineTestQoS.router0.pppg$o[6].channel datarate 1e+09bps
attr mutable ""
attr unit bps
par baselineTestQoS.router0.pppg$o[6].channel ber 0
attr mutable ""
par baselineTestQoS.router0.pppg$o[6].channel per 0
attr mutable ""
par baselineTestQoS.serverVID.pppg$o[0].channel typename "\"improved5gns.simulations.baselineTestQoS.C\""
par baselineTestQoS.serverVID.pppg$o[0].channel disabled false
attr mutable ""
par baselineTestQoS.serverVID.pppg$o[0].channel delay 1e-07s
attr mutable ""
attr unit s
par baselineTestQoS.serverVID.pppg$o[0].channel datarate 1e+10bps
attr mutable ""
attr unit bps
par baselineTestQoS.serverVID.pppg$o[0].channel ber 0
attr mutable ""
par baselineTestQoS.serverVID.pppg$o[0].channel per 0
attr mutable ""
par baselineTestQoS.router1.pppg$o[1].channel typename "\"improved5gns.simulations.baselineTestQoS.C\""
par baselineTestQoS.router1.pppg$o[1].channel disabled false
attr mutable ""
par baselineTestQoS.router1.pppg$o[1].channel delay 1e-07s
attr mutable ""
attr unit s
par baselineTestQoS.router1.pppg$o[1].channel datarate 1e+10bps
attr mutable ""
attr unit bps
par baselineTestQoS.router1.pppg$o[1].channel ber 0
attr mutable ""
par baselineTestQoS.router1.pppg$o[1].channel per 0
attr mutable ""
par baselineTestQoS.serverLVD.pppg$o[0].channel typename "\"improved5gns.simulations.baselineTestQoS.C\""
par baselineTestQoS.serverLVD.pppg$o[0].channel disabled false
attr mutable ""
par baselineTestQoS.serverLVD.pppg$o[0].channel delay 1e-07s
attr mutable ""
attr unit s
par baselineTestQoS.serverLVD.pppg$o[0].channel datarate 1e+10bps
attr mutable ""
attr unit bps
par baselineTestQoS.serverLVD.pppg$o[0].channel ber 0
attr mutable ""
par baselineTestQoS.serverLVD.pppg$o[0].channel per 0
attr mutable ""
par baselineTestQoS.router1.pppg$o[2].channel typename "\"improved5gns.simulations.baselineTestQoS.C\""
par baselineTestQoS.router1.pppg$o[2].channel disabled false
attr mutable ""
par baselineTestQoS.router1.pppg$o[2].channel delay 1e-07s
attr mutable ""
attr unit s
par baselineTestQoS.router1.pppg$o[2].channel datarate 1e+10bps
attr mutable ""
attr unit bps
par baselineTestQoS.router1.pppg$o[2].channel ber 0
attr mutable ""
par baselineTestQoS.router1.pppg$o[2].channel per 0
attr mutable ""
par baselineTestQoS.serverFDO.pppg$o[0].channel typename "\"improved5gns.simulations.baselineTestQoS.C\""
par baselineTestQoS.serverFDO.pppg$o[0].channel disabled false
attr mutable ""
par baselineTestQoS.serverFDO.pppg$o[0].channel delay 1e-07s
attr mutable ""
attr unit s
par baselineTestQoS.serverFDO.pppg$o[0].channel datarate 1e+10bps
attr mutable ""
attr unit bps
par baselineTestQoS.serverFDO.pppg$o[0].channel ber 0
attr mutable ""
par baselineTestQoS.serverFDO.pppg$o[0].channel per 0
attr mutable ""
par baselineTestQoS.router1.pppg$o[3].channel typename "\"improved5gns.simulations.baselineTestQoS.C\""
par baselineTestQoS.router1.pppg$o[3].channel disabled false
attr mutable ""
par baselineTestQoS.router1.pppg$o[3].channel delay 1e-07s
attr mutable ""
attr unit s
par baselineTestQoS.router1.pppg$o[3].channel datarate 1e+10bps
attr mutable ""
attr unit bps
par baselineTestQoS.router1.pppg$o[3].channel ber 0
attr mutable ""
par baselineTestQoS.router1.pppg$o[3].channel per 0
attr mutable ""
par baselineTestQoS.serverSSH.pppg$o[0].channel typename "\"improved5gns.simulations.baselineTestQoS.C\""
par baselineTestQoS.serverSSH.pppg$o[0].channel disabled false
attr mutable ""
par baselineTestQoS.serverSSH.pppg$o[0].channel delay 1e-07s
attr mutable ""
attr unit s
par baselineTestQoS.serverSSH.pppg$o[0].channel datarate 1e+10bps
attr mutable ""
attr unit bps
par baselineTestQoS.serverSSH.pppg$o[0].channel ber 0
attr mutable ""
par baselineTestQoS.serverSSH.pppg$o[0].channel per 0
attr mutable ""
par baselineTestQoS.router1.pppg$o[4].channel typename "\"improved5gns.simulations.baselineTestQoS.C\""
par baselineTestQoS.router1.pppg$o[4].channel disabled false
attr mutable ""
par baselineTestQoS.router1.pppg$o[4].channel delay 1e-07s
attr mutable ""
attr unit s
par baselineTestQoS.router1.pppg$o[4].channel datarate 1e+10bps
attr mutable ""
attr unit bps
par baselineTestQoS.router1.pppg$o[4].channel ber 0
attr mutable ""
par baselineTestQoS.router1.pppg$o[4].channel per 0
attr mutable ""
par baselineTestQoS.serverVIP.pppg$o[0].channel typename "\"improved5gns.simulations.baselineTestQoS.C\""
par baselineTestQoS.serverVIP.pppg$o[0].channel disabled false
attr mutable ""
par baselineTestQoS.serverVIP.pppg$o[0].channel delay 1e-07s
attr mutable ""
attr unit s
par baselineTestQoS.serverVIP.pppg$o[0].channel datarate 1e+10bps
attr mutable ""
attr unit bps
par baselineTestQoS.serverVIP.pppg$o[0].channel ber 0
attr mutable ""
par baselineTestQoS.serverVIP.pppg$o[0].channel per 0
attr mutable ""
par baselineTestQoS.router1.pppg$o[5].channel typename "\"improved5gns.simulations.baselineTestQoS.C\""
par baselineTestQoS.router1.pppg$o[5].channel disabled false
attr mutable ""
par baselineTestQoS.router1.pppg$o[5].channel delay 1e-07s
attr mutable ""
attr unit s
par baselineTestQoS.router1.pppg$o[5].channel datarate 1e+10bps
attr mutable ""
attr unit bps
par baselineTestQoS.router1.pppg$o[5].channel ber 0
attr mutable ""
par baselineTestQoS.router1.pppg$o[5].channel per 0
attr mutable ""
par baselineTestQoS.servercVIP.pppg$o[0].channel typename "\"improved5gns.simulations.baselineTestQoS.C\""
par baselineTestQoS.servercVIP.pppg$o[0].channel disabled false
attr mutable ""
par baselineTestQoS.servercVIP.pppg$o[0].channel delay 1e-07s
attr mutable ""
attr unit s
par baselineTestQoS.servercVIP.pppg$o[0].channel datarate 1e+10bps
attr mutable ""
attr unit bps
par baselineTestQoS.servercVIP.pppg$o[0].channel ber 0
attr mutable ""
par baselineTestQoS.servercVIP.pppg$o[0].channel per 0
attr mutable ""
par baselineTestQoS.router1.pppg$o[6].channel typename "\"improved5gns.simulations.baselineTestQoS.C\""
par baselineTestQoS.router1.pppg$o[6].channel disabled false
attr mutable ""
par baselineTestQoS.router1.pppg$o[6].channel delay 1e-07s
attr mutable ""
attr unit s
par baselineTestQoS.router1.pppg$o[6].channel datarate 1e+10bps
attr mutable ""
attr unit bps
par baselineTestQoS.router1.pppg$o[6].channel ber 0
attr mutable ""
par baselineTestQoS.router1.pppg$o[6].channel per 0
attr mutable ""
par baselineTestQoS.configurator typename "\"inet.networklayer.configurator.ipv4.Ipv4NetworkConfigurator\""
par baselineTestQoS.configurator minLinkWeight 0.001
par baselineTestQoS.configurator configureIsolatedNetworksSeparatly false
par baselineTestQoS.configurator config "<config>...</config> at content:1"
par baselineTestQoS.configurator assignAddresses true
par baselineTestQoS.configurator assignUniqueAddresses true
par baselineTestQoS.configurator assignDisjunctSubnetAddresses true
par baselineTestQoS.configurator addStaticRoutes true
par baselineTestQoS.configurator addDefaultRoutes true
par baselineTestQoS.configurator addSubnetRoutes true
par baselineTestQoS.configurator addDirectRoutes true
par baselineTestQoS.configurator optimizeRoutes true
par baselineTestQoS.configurator dumpTopology false
par baselineTestQoS.configurator dumpLinks false
par baselineTestQoS.configurator dumpAddresses false
par baselineTestQoS.configurator dumpRoutes false
par baselineTestQoS.configurator dumpConfig "\"\""
par baselineTestQoS.hostVID[0].pppg$i[0].channel typename "\"ned.IdealChannel\""
par baselineTestQoS.hostVID[0].ppp[0].phys$o.channel typename "\"ned.IdealChannel\""
par baselineTestQoS.hostVID[0].interfaceTable typename "\"inet.networklayer.common.InterfaceTable\""
par baselineTestQoS.hostVID[0].interfaceTable displayAddresses false
par baselineTestQoS.hostVID[0].cb typename "\"inet.common.MessageDispatcher\""
par baselineTestQoS.hostVID[0].cb displayStringTextFormat "\"processed %p pk (%l)\""
par baselineTestQoS.hostVID[0].cb forwardServiceRegistration true
par baselineTestQoS.hostVID[0].cb forwardProtocolRegistration true
par baselineTestQoS.hostVID[0].bl typename "\"inet.common.MessageDispatcher\""
par baselineTestQoS.hostVID[0].bl displayStringTextFormat "\"processed %p pk (%l)\""
par baselineTestQoS.hostVID[0].bl forwardServiceRegistration true
par baselineTestQoS.hostVID[0].bl forwardProtocolRegistration true
par baselineTestQoS.hostVID[0].li typename "\"inet.common.MessageDispatcher\""
par baselineTestQoS.hostVID[0].li displayStringTextFormat "\"processed %p pk (%l)\""
par baselineTestQoS.hostVID[0].li forwardServiceRegistration true
par baselineTestQoS.hostVID[0].li forwardProtocolRegistration true
par baselineTestQoS.hostVID[0].lo[0].upperLayerIn.channel typename "\"ned.IdealChannel\""
par baselineTestQoS.hostVID[0].lo[0].lo.upperLayerOut.channel typename "\"ned.IdealChannel\""
par baselineTestQoS.hostVID[0].lo[0].lo typename "\"inet.linklayer.loopback.Loopback\""
par baselineTestQoS.hostVID[0].lo[0].lo interfaceTableModule "\"baselineTestQoS.hostVID[0].interfaceTable\""
par baselineTestQoS.hostVID[0].lo[0].lo mtu 4470B
attr unit B
scalar baselineTestQoS.hostVID[0].lo[0].lo rcvdPkFromHl:count 0
attr interpolationmode none
attr recordingmode count
attr source packetReceivedFromUpper
attr title "packets received from higher layer, count"
scalar baselineTestQoS.hostVID[0].lo[0].lo rcvdPkFromHl:sum(packetBytes) 0
attr interpolationmode none
attr recordingmode sum(packetBytes)
attr source packetReceivedFromUpper
attr title "packets received from higher layer, sum(packetBytes)"
scalar baselineTestQoS.hostVID[0].lo[0].lo passedUpPk:count 0
attr interpolationmode none
attr recordingmode count
attr source packetSentToUpper
attr title "packets passed to higher layer, count"
scalar baselineTestQoS.hostVID[0].lo[0].lo passedUpPk:sum(packetBytes) 0
attr interpolationmode none
attr recordingmode sum(packetBytes)
attr source packetSentToUpper
attr title "packets passed to higher layer, sum(packetBytes)"
par baselineTestQoS.hostVID[0].lo[0] typename "\"inet.linklayer.loopback.LoopbackInterface\""
par baselineTestQoS.hostVID[0].lo[0] displayStringTextFormat "\"%a (%i)\\n%m\""
par baselineTestQoS.hostVID[0].lo[0] recordPcap false
par baselineTestQoS.hostVID[0].lo[0] numPcapRecorders 0
par baselineTestQoS.hostVID[0].lo[0] interfaceTableModule "\"baselineTestQoS.hostVID[0].interfaceTable\""
scalar baselineTestQoS.hostVID[0].lo[0] packetDropInterfaceDown:count 0
attr interpolationmode none
attr recordingmode count
attr source packetDropReasonIsInterfaceDown(packetDropped)
attr title "packet drops: interface down, count"
scalar baselineTestQoS.hostVID[0].lo[0] packetDropInterfaceDown:sum(packetBytes) 0
attr interpolationmode none
attr recordingmode sum(packetBytes)
attr source packetDropReasonIsInterfaceDown(packetDropped)
attr title "packet drops: interface down, sum(packetBytes)"
scalar baselineTestQoS.hostVID[0].lo[0] packetDropNoCarrier:count 0
attr interpolationmode none
attr recordingmode count
attr source packetDropReasonIsNoCarrier(packetDropped)
attr title "packet drops: no carrier, count"
scalar baselineTestQoS.hostVID[0].lo[0] packetDropNoCarrier:sum(packetBytes) 0
attr interpolationmode none
attr recordingmode sum(packetBytes)
attr source packetDropReasonIsNoCarrier(packetDropped)
attr title "packet drops: no carrier, sum(packetBytes)"
par baselineTestQoS.hostVID[0].ppp[0].phys$i.channel typename "\"ned.IdealChannel\""
par baselineTestQoS.hostVID[0].ppp[0].ppp.phys$o.channel typename "\"ned.IdealChannel\""
par baselineTestQoS.hostVID[0].ppp[0].ppp.upperLayerOut.channel typename "\"ned.IdealChannel\""
par baselineTestQoS.hostVID[0].ppp[0].upperLayerIn.channel typename "\"ned.IdealChannel\""
par baselineTestQoS.hostVID[0].ppp[0].queue typename "\"inet.queueing.queue.DropTailQueue\""
par baselineTestQoS.hostVID[0].ppp[0].queue displayStringTextFormat "\"contains %p pk (%l) pushed %u\\npulled %o removed %r dropped %d\""
par baselineTestQoS.hostVID[0].ppp[0].queue packetCapacity 500
par baselineTestQoS.hostVID[0].ppp[0].queue dataCapacity -1b
attr unit b
par baselineTestQoS.hostVID[0].ppp[0].queue dropperClass "\"inet::queueing::PacketAtCollectionEndDropper\""
par baselineTestQoS.hostVID[0].ppp[0].queue comparatorClass "\"\""
par baselineTestQoS.hostVID[0].ppp[0].queue bufferModule "\"\""
scalar baselineTestQoS.hostVID[0].ppp[0].queue queueLength:last nan
attr autoWarmupFilter false
attr interpolationmode sample-hold
attr recordingmode last
attr source "warmup(atomic(constant0(packetPushEnded) + count(packetPushStarted) - count(packetPulled) - count(packetRemoved) - count(packetDropped)))"
attr title "queue length, last"
attr unit pk
scalar baselineTestQoS.hostVID[0].ppp[0].queue queueLength:max nan
attr autoWarmupFilter false
attr interpolationmode sample-hold
attr recordingmode max
attr source "warmup(atomic(constant0(packetPushEnded) + count(packetPushStarted) - count(packetPulled) - count(packetRemoved) - count(packetDropped)))"
attr title "queue length, max"
attr unit pk
scalar baselineTestQoS.hostVID[0].ppp[0].queue queueLength:timeavg nan
attr autoWarmupFilter false
attr interpolationmode sample-hold
attr recordingmode timeavg
attr source "warmup(atomic(constant0(packetPushEnded) + count(packetPushStarted) - count(packetPulled) - count(packetRemoved) - count(packetDropped)))"
attr title "queue length, timeavg"
attr unit pk
scalar baselineTestQoS.hostVID[0].ppp[0].queue queueBitLength:last nan
attr autoWarmupFilter false
attr interpolationmode sample-hold
attr recordingmode last
attr source "warmup(atomic(constant0(packetPushEnded) + sum(packetLength(packetPushStarted)) - sum(packetLength(packetPulled)) - sum(packetLength(packetRemoved)) - sum(packetLength(packetDropped))))"
attr title "queue bit length, last"
attr unit b
scalar baselineTestQoS.hostVID[0].ppp[0].queue queueBitLength:max nan
attr autoWarmupFilter false
attr interpolationmode sample-hold
attr recordingmode max
attr source "warmup(atomic(constant0(packetPushEnded) + sum(packetLength(packetPushStarted)) - sum(packetLength(packetPulled)) - sum(packetLength(packetRemoved)) - sum(packetLength(packetDropped))))"
attr title "queue bit length, max"
attr unit b
scalar baselineTestQoS.hostVID[0].ppp[0].queue queueBitLength:timeavg nan
attr autoWarmupFilter false
attr interpolationmode sample-hold
attr recordingmode timeavg
attr source "warmup(atomic(constant0(packetPushEnded) + sum(packetLength(packetPushStarted)) - sum(packetLength(packetPulled)) - sum(packetLength(packetRemoved)) - sum(packetLength(packetDropped))))"
attr title "queue bit length, timeavg"
attr unit b
statistic baselineTestQoS.hostVID[0].ppp[0].queue queueingTime:histogram
field count 0
field mean nan
field stddev nan
field min nan
field max nan
field sum 0
field sqrsum 0
attr interpolationmode none
attr recordingmode histogram
attr source queueingTime(packetPulled)
attr title "queueing times"
attr unit s
bin	-inf	0
bin	0	0
bin	1	0
scalar baselineTestQoS.hostVID[0].ppp[0].queue outgoingPackets:count 0
attr recordingmode count
attr source packetPulled
attr title "outgoing packets, count"
attr unit pk
scalar baselineTestQoS.hostVID[0].ppp[0].queue outgoingPacketLengths:sum 0
attr interpolationmode none
attr recordingmode sum
attr source packetLength(packetPulled)
attr title "outgoing packet lengths, sum"
attr unit b
statistic baselineTestQoS.hostVID[0].ppp[0].queue outgoingPacketLengths:histogram
field count 0
field mean nan
field stddev nan
field min nan
field max nan
field sum 0
field sqrsum 0
attr interpolationmode none
attr recordingmode histogram
attr source packetLength(packetPulled)
attr title "outgoing packet lengths"
attr unit b
bin	-inf	0
bin	0	0
bin	1	0
statistic baselineTestQoS.hostVID[0].ppp[0].queue flowQueueingTime:histogram
field count 0
field mean nan
field stddev nan
field min nan
field max nan
field sum 0
field sqrsum 0
attr interpolationmode none
attr recordingmode histogram
attr source queueingTime(demuxFlow(packetPulled))
attr title "flow queueing times"
attr unit s
bin	-inf	0
bin	0	0
bin	1	0
scalar baselineTestQoS.hostVID[0].ppp[0].queue incomingPackets:count 0
attr recordingmode count
attr source packetPushStarted
attr title "incoming packets, count"
attr unit pk
scalar baselineTestQoS.hostVID[0].ppp[0].queue incomingPacketLengths:sum 0
attr interpolationmode none
attr recordingmode sum
attr source packetLength(packetPushStarted)
attr title "incoming packet lengths, sum"
attr unit b
statistic baselineTestQoS.hostVID[0].ppp[0].queue incomingPacketLengths:histogram
field count 0
field mean nan
field stddev nan
field min nan
field max nan
field sum 0
field sqrsum 0
attr interpolationmode none
attr recordingmode histogram
attr source packetLength(packetPushStarted)
attr title "incoming packet lengths"
attr unit b
bin	-inf	0
bin	0	0
bin	1	0
scalar baselineTestQoS.hostVID[0].ppp[0].queue droppedPacketsQueueOverflow:count 0
attr interpolationmode none
attr recordingmode count
attr source packetDropReasonIsQueueOverflow(packetDropped)
attr title "dropped packets: queue overflow, count"
attr unit pk
scalar baselineTestQoS.hostVID[0].ppp[0].queue droppedPacketLengthsQueueOverflow:sum 0
attr interpolationmode none
attr recordingmode sum
attr source packetLength(packetDropReasonIsQueueOverflow(packetDropped))
attr title "dropped packet lengths: queue overflow, sum"
attr unit b
par baselineTestQoS.hostVID[0].ppp[0].ppp typename "\"inet.linklayer.ppp.Ppp\""
par baselineTestQoS.hostVID[0].ppp[0].ppp interfaceTableModule "\"baselineTestQoS.hostVID[0].interfaceTable\""
par baselineTestQoS.hostVID[0].ppp[0].ppp displayStringTextFormat "\"rate: %b\\nsent: %s, rcvd: %r\\nqueue: %q, drop: %d\""
par baselineTestQoS.hostVID[0].ppp[0].ppp sendRawBytes false
par baselineTestQoS.hostVID[0].ppp[0].ppp mtu 4470B
attr unit B
par baselineTestQoS.hostVID[0].ppp[0].ppp stopOperationExtraTime -1s
attr unit s
par baselineTestQoS.hostVID[0].ppp[0].ppp stopOperationTimeout 2s
attr unit s
scalar baselineTestQoS.hostVID[0].ppp[0].ppp transmissionState:timeavg 0
attr interpolationmode sample-hold
attr recordingmode timeavg
attr source transmissionStateChanged
attr title "tx state, timeavg"
scalar baselineTestQoS.hostVID[0].ppp[0].ppp rxPkOk:count 0
attr interpolationmode none
attr recordingmode count
attr source rxPkOk
attr title "packets received OK, count"
scalar baselineTestQoS.hostVID[0].ppp[0].ppp rxPkOk:sum(packetBytes) 0
attr interpolationmode none
attr recordingmode sum(packetBytes)
attr source rxPkOk
attr title "packets received OK, sum(packetBytes)"
scalar baselineTestQoS.hostVID[0].ppp[0].ppp txPk:count 0
attr interpolationmode none
attr recordingmode count
attr source packetSentToLower
attr title "packets transmitted, count"
scalar baselineTestQoS.hostVID[0].ppp[0].ppp txPk:sum(packetBytes) 0
attr interpolationmode none
attr recordingmode sum(packetBytes)
attr source packetSentToLower
attr title "packets transmitted, sum(packetBytes)"
scalar baselineTestQoS.hostVID[0].ppp[0].ppp rcvdPkFromHl:count 0
attr interpolationmode none
attr recordingmode count
attr source packetReceivedFromUpper
attr title "packets received from higher layer, count"
scalar baselineTestQoS.hostVID[0].ppp[0].ppp rcvdPkFromHl:sum(packetBytes) 0
attr interpolationmode none
attr recordingmode sum(packetBytes)
attr source packetReceivedFromUpper
attr title "packets received from higher layer, sum(packetBytes)"
scalar baselineTestQoS.hostVID[0].ppp[0].ppp passedUpPk:count 0
attr interpolationmode none
attr recordingmode count
attr source packetSentToUpper
attr title "packets passed to higher layer, count"
scalar baselineTestQoS.hostVID[0].ppp[0].ppp passedUpPk:sum(packetBytes) 0
attr interpolationmode none
attr recordingmode sum(packetBytes)
attr source packetSentToUpper
attr title "packets passed to higher layer, sum(packetBytes)"
scalar baselineTestQoS.hostVID[0].ppp[0].ppp packetDropIncorrectlyReceived:count 0
attr interpolationmode none
attr recordingmode count
attr source packetDropReasonIsIncorrectlyReceived(packetDropped)
attr title "packet drop: incorrectly received, count"
scalar baselineTestQoS.hostVID[0].ppp[0].ppp packetDropIncorrectlyReceived:sum(packetBytes) 0
attr interpolationmode none
attr recordingmode sum(packetBytes)
attr source packetDropReasonIsIncorrectlyReceived(packetDropped)
attr title "packet drop: incorrectly received, sum(packetBytes)"
scalar baselineTestQoS.hostVID[0].ppp[0].ppp packetDropInterfaceDown:count 0
attr interpolationmode none
attr recordingmode count
attr source packetDropReasonIsInterfaceDown(packetDropped)
attr title "packet drop: interface down, count"
scalar baselineTestQoS.hostVID[0].ppp[0].ppp packetDropInterfaceDown:sum(packetBytes) 0
attr interpolationmode none
attr recordingmode sum(packetBytes)
attr source packetDropReasonIsInterfaceDown(packetDropped)
attr title "packet drop: interface down, sum(packetBytes)"
par baselineTestQoS.hostVID[0].ppp[0] typename "\"inet.linklayer.ppp.PppInterface\""
par baselineTestQoS.hostVID[0].ppp[0] displayStringTextFormat "\"%a (%i)\\n%m\""
par baselineTestQoS.hostVID[0].ppp[0] recordPcap false
par baselineTestQoS.hostVID[0].ppp[0] numPcapRecorders 0
par baselineTestQoS.hostVID[0].ppp[0] interfaceTableModule "\"baselineTestQoS.hostVID[0].interfaceTable\""
scalar baselineTestQoS.hostVID[0].ppp[0] packetDropInterfaceDown:count 0
attr interpolationmode none
attr recordingmode count
attr source packetDropReasonIsInterfaceDown(packetDropped)
attr title "packet drops: interface down, count"
scalar baselineTestQoS.hostVID[0].ppp[0] packetDropInterfaceDown:sum(packetBytes) 0
attr interpolationmode none
attr recordingmode sum(packetBytes)
attr source packetDropReasonIsInterfaceDown(packetDropped)
attr title "packet drops: interface down, sum(packetBytes)"
scalar baselineTestQoS.hostVID[0].ppp[0] packetDropNoCarrier:count 0
attr interpolationmode none
attr recordingmode count
attr source packetDropReasonIsNoCarrier(packetDropped)
attr title "packet drops: no carrier, count"
scalar baselineTestQoS.hostVID[0].ppp[0] packetDropNoCarrier:sum(packetBytes) 0
attr interpolationmode none
attr recordingmode sum(packetBytes)
attr source packetDropReasonIsNoCarrier(packetDropped)
attr title "packet drops: no carrier, sum(packetBytes)"
par baselineTestQoS.hostVID[0].ipv4.transportIn.channel typename "\"ned.IdealChannel\""
par baselineTestQoS.hostVID[0].ipv4.up.out[0].channel typename "\"ned.IdealChannel\""
par baselineTestQoS.hostVID[0].ipv4.lp.out[2].channel typename "\"ned.IdealChannel\""
par baselineTestQoS.hostVID[0].ipv4.ifIn.channel typename "\"ned.IdealChannel\""
par baselineTestQoS.hostVID[0].ipv4.configurator typename "\"inet.networklayer.configurator.ipv4.Ipv4NodeConfigurator\""
par baselineTestQoS.hostVID[0].ipv4.configurator interfaceTableModule "\"baselineTestQoS.hostVID[0].interfaceTable\""
par baselineTestQoS.hostVID[0].ipv4.configurator routingTableModule "\"baselineTestQoS.hostVID[0].ipv4.routingTable\""
par baselineTestQoS.hostVID[0].ipv4.configurator networkConfiguratorModule "\"configurator\""
par baselineTestQoS.hostVID[0].ipv4.configurator configureRoutingTable true
par baselineTestQoS.hostVID[0].ipv4.routingTable typename "\"inet.networklayer.ipv4.Ipv4RoutingTable\""
par baselineTestQoS.hostVID[0].ipv4.routingTable interfaceTableModule "\"baselineTestQoS.hostVID[0].interfaceTable\""
par baselineTestQoS.hostVID[0].ipv4.routingTable routerId "\"auto\""
par baselineTestQoS.hostVID[0].ipv4.routingTable netmaskRoutes "\"*\""
par baselineTestQoS.hostVID[0].ipv4.routingTable forwarding false
par baselineTestQoS.hostVID[0].ipv4.routingTable multicastForwarding false
par baselineTestQoS.hostVID[0].ipv4.routingTable useAdminDist false
par baselineTestQoS.hostVID[0].ipv4.routingTable routingFile "\"\""
par baselineTestQoS.hostVID[0].ipv4.natTable typename "\"inet.networklayer.ipv4.Ipv4NatTable\""
par baselineTestQoS.hostVID[0].ipv4.natTable networkProtocolModule "\"^.ip\""
par baselineTestQoS.hostVID[0].ipv4.natTable config "<config/> at content:1"
par baselineTestQoS.hostVID[0].ipv4.up typename "\"inet.common.MessageDispatcher\""
par baselineTestQoS.hostVID[0].ipv4.up displayStringTextFormat "\"processed %p pk (%l)\""
par baselineTestQoS.hostVID[0].ipv4.up forwardServiceRegistration true
par baselineTestQoS.hostVID[0].ipv4.up forwardProtocolRegistration true
par baselineTestQoS.hostVID[0].ipv4.igmp typename "\"inet.networklayer.ipv4.Igmpv2\""
par baselineTestQoS.hostVID[0].ipv4.igmp interfaceTableModule "\"baselineTestQoS.hostVID[0].interfaceTable\""
par baselineTestQoS.hostVID[0].ipv4.igmp routingTableModule "\"baselineTestQoS.hostVID[0].ipv4.routingTable\""
par baselineTestQoS.hostVID[0].ipv4.igmp crcMode "\"computed\""
attr enum declared,computed
par baselineTestQoS.hostVID[0].ipv4.igmp enabled true
par baselineTestQoS.hostVID[0].ipv4.igmp robustnessVariable 2
par baselineTestQoS.hostVID[0].ipv4.igmp queryInterval 125s
attr unit s
par baselineTestQoS.hostVID[0].ipv4.igmp queryResponseInterval 10s
attr unit s
par baselineTestQoS.hostVID[0].ipv4.igmp groupMembershipInterval 260s
attr unit s
par baselineTestQoS.hostVID[0].ipv4.igmp otherQuerierPresentInterval 255s
attr unit s
par baselineTestQoS.hostVID[0].ipv4.igmp startupQueryInterval 31.25s
attr unit s
par baselineTestQoS.hostVID[0].ipv4.igmp startupQueryCount 2
par baselineTestQoS.hostVID[0].ipv4.igmp lastMemberQueryInterval 1s
attr unit s
par baselineTestQoS.hostVID[0].ipv4.igmp lastMemberQueryCount 2
par baselineTestQoS.hostVID[0].ipv4.igmp unsolicitedReportInterval 10s
attr unit s
par baselineTestQoS.hostVID[0].ipv4.icmp typename "\"inet.networklayer.ipv4.Icmp\""
par baselineTestQoS.hostVID[0].ipv4.icmp interfaceTableModule "\"baselineTestQoS.hostVID[0].interfaceTable\""
par baselineTestQoS.hostVID[0].ipv4.icmp routingTableModule "\"baselineTestQoS.hostVID[0].ipv4.routingTable\""
par baselineTestQoS.hostVID[0].ipv4.icmp crcMode "\"computed\""
attr enum declared,computed
attr mutable ""
par baselineTestQoS.hostVID[0].ipv4.icmp quoteLength 8B
attr mutable ""
attr unit B
par baselineTestQoS.hostVID[0].ipv4.mp typename "\"inet.common.MessageDispatcher\""
par baselineTestQoS.hostVID[0].ipv4.mp displayStringTextFormat "\"processed %p pk (%l)\""
par baselineTestQoS.hostVID[0].ipv4.mp forwardServiceRegistration true
par baselineTestQoS.hostVID[0].ipv4.mp forwardProtocolRegistration true
par baselineTestQoS.hostVID[0].ipv4.ip typename "\"inet.networklayer.ipv4.Ipv4\""
par baselineTestQoS.hostVID[0].ipv4.ip interfaceTableModule "\"baselineTestQoS.hostVID[0].interfaceTable\""
par baselineTestQoS.hostVID[0].ipv4.ip routingTableModule "\"baselineTestQoS.hostVID[0].ipv4.routingTable\""
par baselineTestQoS.hostVID[0].ipv4.ip arpModule "\"baselineTestQoS.hostVID[0].ipv4.arp\""
par baselineTestQoS.hostVID[0].ipv4.ip icmpModule "\"baselineTestQoS.hostVID[0].ipv4.icmp\""
par baselineTestQoS.hostVID[0].ipv4.ip crcMode "\"computed\""
attr enum declared,computed
par baselineTestQoS.hostVID[0].ipv4.ip timeToLive 32
par baselineTestQoS.hostVID[0].ipv4.ip multicastTimeToLive 32
par baselineTestQoS.hostVID[0].ipv4.ip fragmentTimeout 60s
attr unit s
par baselineTestQoS.hostVID[0].ipv4.ip limitedBroadcast false
par baselineTestQoS.hostVID[0].ipv4.ip directBroadcastInterfaces "\"\""
scalar baselineTestQoS.hostVID[0].ipv4.ip packetDropAddressResolutionFailed:count 0
attr interpolationmode none
attr recordingmode count
attr source packetDropReasonIsAddressResolutionFailed(packetDropped)
attr title "packet drop: address resolution failed, count"
scalar baselineTestQoS.hostVID[0].ipv4.ip packetDropAddressResolutionFailed:sum(packetBytes) 0
attr interpolationmode none
attr recordingmode sum(packetBytes)
attr source packetDropReasonIsAddressResolutionFailed(packetDropped)
attr title "packet drop: address resolution failed, sum(packetBytes)"
scalar baselineTestQoS.hostVID[0].ipv4.ip packetDropHopLimitReached:count 0
attr interpolationmode none
attr recordingmode count
attr source packetDropReasonIsHopLimitReached(packetDropped)
attr title "packet drop: hop limit reached, count"
scalar baselineTestQoS.hostVID[0].ipv4.ip packetDropHopLimitReached:sum(packetBytes) 0
attr interpolationmode none
attr recordingmode sum(packetBytes)
attr source packetDropReasonIsHopLimitReached(packetDropped)
attr title "packet drop: hop limit reached, sum(packetBytes)"
scalar baselineTestQoS.hostVID[0].ipv4.ip packetDropForwardingDisabled:count 0
attr interpolationmode none
attr recordingmode count
attr source packetDropReasonIsForwardingDisabled(packetDropped)
attr title "packet drop: forwarding disabled, count"
scalar baselineTestQoS.hostVID[0].ipv4.ip packetDropForwardingDisabled:sum(packetBytes) 0
attr interpolationmode none
attr recordingmode sum(packetBytes)
attr source packetDropReasonIsForwardingDisabled(packetDropped)
attr title "packet drop: forwarding disabled, sum(packetBytes)"
scalar baselineTestQoS.hostVID[0].ipv4.ip packetDropNoInterfaceFound:count 0
attr interpolationmode none
attr recordingmode count
attr source packetDropReasonIsNoInterfaceFound(packetDropped)
attr title "packet drop: no interface found, count"
scalar baselineTestQoS.hostVID[0].ipv4.ip packetDropNoInterfaceFound:sum(packetBytes) 0
attr interpolationmode none
attr recordingmode sum(packetBytes)
attr source packetDropReasonIsNoInterfaceFound(packetDropped)
attr title "packet drop: no interface found, sum(packetBytes)"
scalar baselineTestQoS.hostVID[0].ipv4.ip packetDropNoRouteFound:count 0
attr interpolationmode none
attr recordingmode count
attr source packetDropReasonIsNoRouteFound(packetDropped)
attr title "packet drop: no route found, count"
scalar baselineTestQoS.hostVID[0].ipv4.ip packetDropNoRouteFound:sum(packetBytes) 0
attr interpolationmode none
attr recordingmode sum(packetBytes)
attr source packetDropReasonIsNoRouteFound(packetDropped)
attr title "packet drop: no route found, sum(packetBytes)"
scalar baselineTestQoS.hostVID[0].ipv4.ip packetDropUndefined:count 0
attr interpolationmode none
attr recordingmode count
attr source packetDropReasonIsUndefined(packetDropped)
attr title "packet drop: undefined, count"
scalar baselineTestQoS.hostVID[0].ipv4.ip packetDropUndefined:sum(packetBytes) 0
attr interpolationmode none
attr recordingmode sum(packetBytes)
attr source packetDropReasonIsUndefined(packetDropped)
attr title "packet drop: undefined, sum(packetBytes)"
par baselineTestQoS.hostVID[0].ipv4.arp typename "\"inet.networklayer.arp.ipv4.Arp\""
par baselineTestQoS.hostVID[0].ipv4.arp interfaceTableModule "\"baselineTestQoS.hostVID[0].interfaceTable\""
par baselineTestQoS.hostVID[0].ipv4.arp routingTableModule "\"baselineTestQoS.hostVID[0].ipv4.routingTable\""
par baselineTestQoS.hostVID[0].ipv4.arp retryTimeout 1s
attr unit s
par baselineTestQoS.hostVID[0].ipv4.arp retryCount 3
par baselineTestQoS.hostVID[0].ipv4.arp cacheTimeout 120s
attr unit s
par baselineTestQoS.hostVID[0].ipv4.arp proxyArpInterfaces "\"\""
scalar baselineTestQoS.hostVID[0].ipv4.arp arpResolutionFailed:count 0
attr recordingmode count
attr title "ARP failed resolutions, count"
scalar baselineTestQoS.hostVID[0].ipv4.arp arpResolutionCompleted:count 0
attr recordingmode count
attr title "ARP completed resolutions, count"
scalar baselineTestQoS.hostVID[0].ipv4.arp arpResolutionInitiated:count 0
attr recordingmode count
attr title "ARP initiated resolutions, count"
scalar baselineTestQoS.hostVID[0].ipv4.arp arpReplySent:count 0
attr recordingmode count
attr source arpReplySent
attr title "ARP replies sent, count"
scalar baselineTestQoS.hostVID[0].ipv4.arp arpReplySent:sum(packetBytes) 0
attr recordingmode sum(packetBytes)
attr source arpReplySent
attr title "ARP replies sent, sum(packetBytes)"
scalar baselineTestQoS.hostVID[0].ipv4.arp arpRequestSent:count 0
attr recordingmode count
attr source arpRequestSent
attr title "ARP request sent, count"
scalar baselineTestQoS.hostVID[0].ipv4.arp arpRequestSent:sum(packetBytes) 0
attr recordingmode sum(packetBytes)
attr source arpRequestSent
attr title "ARP request sent, sum(packetBytes)"
par baselineTestQoS.hostVID[0].ipv4.lp typename "\"inet.common.MessageDispatcher\""
par baselineTestQoS.hostVID[0].ipv4.lp displayStringTextFormat "\"processed %p pk (%l)\""
par baselineTestQoS.hostVID[0].ipv4.lp forwardServiceRegistration true
par baselineTestQoS.hostVID[0].ipv4.lp forwardProtocolRegistration true
par baselineTestQoS.hostVID[0].ipv4 typename "\"inet.networklayer.ipv4.Ipv4NetworkLayer\""
par baselineTestQoS.hostVID[0].ipv4 forwarding false
par baselineTestQoS.hostVID[0].ipv4 multicastForwarding false
par baselineTestQoS.hostVID[0].ipv4 interfaceTableModule "\"baselineTestQoS.hostVID[0].interfaceTable\""
par baselineTestQoS.hostVID[0].ipv4 displayStringTextFormat "\"%i\""
par baselineTestQoS.hostVID[0].nl typename "\"inet.common.MessageDispatcher\""
par baselineTestQoS.hostVID[0].nl displayStringTextFormat "\"processed %p pk (%l)\""
par baselineTestQoS.hostVID[0].nl forwardServiceRegistration true
par baselineTestQoS.hostVID[0].nl forwardProtocolRegistration true
par baselineTestQoS.hostVID[0].udp.crcInsertion typename "\"inet.transportlayer.udp.UdpCrcInsertionHook\""
par baselineTestQoS.hostVID[0].udp typename "\"inet.transportlayer.udp.Udp\""
par baselineTestQoS.hostVID[0].udp interfaceTableModule "\"baselineTestQoS.hostVID[0].interfaceTable\""
par baselineTestQoS.hostVID[0].udp icmpModule "\"^.ipv4.icmp\""
par baselineTestQoS.hostVID[0].udp icmpv6Module "\"^.ipv6.icmpv6\""
par baselineTestQoS.hostVID[0].udp crcMode "\"computed\""
attr enum disabled,declared,computed
par baselineTestQoS.hostVID[0].udp defaultMulticastLoop true
scalar baselineTestQoS.hostVID[0].udp packetReceived:count 0
attr interpolationmode none
attr recordingmode count
attr source packetReceived
attr title "packets received, count"
scalar baselineTestQoS.hostVID[0].udp packetReceived:sum(packetBytes) 0
attr interpolationmode none
attr recordingmode sum(packetBytes)
attr source packetReceived
attr title "packets received, sum(packetBytes)"
scalar baselineTestQoS.hostVID[0].udp packetSent:count 0
attr interpolationmode none
attr recordingmode count
attr source packetSent
attr title "packets sent, count"
scalar baselineTestQoS.hostVID[0].udp packetSent:sum(packetBytes) 0
attr interpolationmode none
attr recordingmode sum(packetBytes)
attr source packetSent
attr title "packets sent, sum(packetBytes)"
scalar baselineTestQoS.hostVID[0].udp passedUpPk:count 0
attr interpolationmode none
attr recordingmode count
attr source packetSentToUpper
attr title "packets passed up, count"
scalar baselineTestQoS.hostVID[0].udp droppedPkWrongPort:count 0
attr interpolationmode none
attr recordingmode count
attr source packetDropReasonIsNoPortFound(packetDropped)
attr title "packets dropped (wrong port), count"
scalar baselineTestQoS.hostVID[0].udp droppedPkBadChecksum:count 0
attr interpolationmode none
attr recordingmode count
attr source packetDropReasonIsIncorrectlyReceived(packetDropped)
attr title "packets dropped (checksum error), count"
par baselineTestQoS.hostVID[0].tcp.crcInsertion typename "\"inet.transportlayer.tcp_common.TcpCrcInsertionHook\""
par baselineTestQoS.hostVID[0].tcp typename "\"inet.transportlayer.tcp.Tcp\""
par baselineTestQoS.hostVID[0].tcp crcMode "\"computed\""
attr enum declared,computed
par baselineTestQoS.hostVID[0].tcp advertisedWindow 65535
par baselineTestQoS.hostVID[0].tcp delayedAcksEnabled false
par baselineTestQoS.hostVID[0].tcp nagleEnabled true
par baselineTestQoS.hostVID[0].tcp limitedTransmitEnabled false
par baselineTestQoS.hostVID[0].tcp increasedIWEnabled false
par baselineTestQoS.hostVID[0].tcp sackSupport false
par baselineTestQoS.hostVID[0].tcp windowScalingSupport false
par baselineTestQoS.hostVID[0].tcp windowScalingFactor -1
par baselineTestQoS.hostVID[0].tcp timestampSupport false
par baselineTestQoS.hostVID[0].tcp mss 1452
par baselineTestQoS.hostVID[0].tcp msl 120s
attr unit s
par baselineTestQoS.hostVID[0].tcp tcpAlgorithmClass "\"TcpReno\""
attr enum TcpVegas,TcpWestwood,TcpNewReno,TcpReno,TcpTahoe,TcpNoCongestionControl
par baselineTestQoS.hostVID[0].tcp useDataNotification false
par baselineTestQoS.hostVID[0].tcp dupthresh 3
par baselineTestQoS.hostVID[0].tcp initialSsthresh 4294967295
par baselineTestQoS.hostVID[0].tcp stopOperationExtraTime 0s
attr unit s
par baselineTestQoS.hostVID[0].tcp stopOperationTimeout 2s
attr unit s
par baselineTestQoS.hostVID[0].tcp ecnWillingness false
par baselineTestQoS.hostVID[0].tcp dctcpGamma 0.0625
par baselineTestQoS.hostVID[0].tn typename "\"inet.common.MessageDispatcher\""
par baselineTestQoS.hostVID[0].tn displayStringTextFormat "\"processed %p pk (%l)\""
par baselineTestQoS.hostVID[0].tn forwardServiceRegistration true
par baselineTestQoS.hostVID[0].tn forwardProtocolRegistration true
par baselineTestQoS.hostVID[0].at typename "\"inet.common.MessageDispatcher\""
par baselineTestQoS.hostVID[0].at displayStringTextFormat "\"processed %p pk (%l)\""
par baselineTestQoS.hostVID[0].at forwardServiceRegistration true
par baselineTestQoS.hostVID[0].at forwardProtocolRegistration true
par baselineTestQoS.hostVID[0] typename "\"inet.node.inet.StandardHost\""
par baselineTestQoS.hostVID[0] hasStatus false
par baselineTestQoS.hostVID[0] osgModel "\"\""
par baselineTestQoS.hostVID[0] osgModelColor "\"\""
par baselineTestQoS.hostVID[0] canvasImage "\"\""
par baselineTestQoS.hostVID[0] canvasImageColor "\"\""
par baselineTestQoS.hostVID[0] recordPcap false
par baselineTestQoS.hostVID[0] numPcapRecorders 0
par baselineTestQoS.hostVID[0] numLoInterfaces 1
par baselineTestQoS.hostVID[0] numWlanInterfaces 0
par baselineTestQoS.hostVID[0] numEthInterfaces 0
par baselineTestQoS.hostVID[0] numPppInterfaces 0
par baselineTestQoS.hostVID[0] numTunInterfaces 0
par baselineTestQoS.hostVID[0] numVirtInterfaces 0
par baselineTestQoS.hostVID[0] fcsMode "\"declared\""
attr enum declared,computed
par baselineTestQoS.hostVID[0] hasIpv4 true
par baselineTestQoS.hostVID[0] hasIpv6 false
par baselineTestQoS.hostVID[0] hasGn false
par baselineTestQoS.hostVID[0] forwarding false
par baselineTestQoS.hostVID[0] multicastForwarding false
par baselineTestQoS.hostVID[0] hasUdp true
par baselineTestQoS.hostVID[0] hasTcp true
par baselineTestQoS.hostVID[0] hasSctp false
par baselineTestQoS.hostVID[0] numApps 0
par baselineTestQoS.hostLVD[0].pppg$i[0].channel typename "\"ned.IdealChannel\""
par baselineTestQoS.hostLVD[0].ppp[0].phys$o.channel typename "\"ned.IdealChannel\""
par baselineTestQoS.hostLVD[0].interfaceTable typename "\"inet.networklayer.common.InterfaceTable\""
par baselineTestQoS.hostLVD[0].interfaceTable displayAddresses false
par baselineTestQoS.hostLVD[0].cb typename "\"inet.common.MessageDispatcher\""
par baselineTestQoS.hostLVD[0].cb displayStringTextFormat "\"processed %p pk (%l)\""
par baselineTestQoS.hostLVD[0].cb forwardServiceRegistration true
par baselineTestQoS.hostLVD[0].cb forwardProtocolRegistration true
par baselineTestQoS.hostLVD[0].bl typename "\"inet.common.MessageDispatcher\""
par baselineTestQoS.hostLVD[0].bl displayStringTextFormat "\"processed %p pk (%l)\""
par baselineTestQoS.hostLVD[0].bl forwardServiceRegistration true
par baselineTestQoS.hostLVD[0].bl forwardProtocolRegistration true
par baselineTestQoS.hostLVD[0].li typename "\"inet.common.MessageDispatcher\""
par baselineTestQoS.hostLVD[0].li displayStringTextFormat "\"processed %p pk (%l)\""
par baselineTestQoS.hostLVD[0].li forwardServiceRegistration true
par baselineTestQoS.hostLVD[0].li forwardProtocolRegistration true
par baselineTestQoS.hostLVD[0].lo[0].upperLayerIn.channel typename "\"ned.IdealChannel\""
par baselineTestQoS.hostLVD[0].lo[0].lo.upperLayerOut.channel typename "\"ned.IdealChannel\""
par baselineTestQoS.hostLVD[0].lo[0].lo typename "\"inet.linklayer.loopback.Loopback\""
par baselineTestQoS.hostLVD[0].lo[0].lo interfaceTableModule "\"baselineTestQoS.hostLVD[0].interfaceTable\""
par baselineTestQoS.hostLVD[0].lo[0].lo mtu 4470B
attr unit B
scalar baselineTestQoS.hostLVD[0].lo[0].lo rcvdPkFromHl:count 0
attr interpolationmode none
attr recordingmode count
attr source packetReceivedFromUpper
attr title "packets received from higher layer, count"
scalar baselineTestQoS.hostLVD[0].lo[0].lo rcvdPkFromHl:sum(packetBytes) 0
attr interpolationmode none
attr recordingmode sum(packetBytes)
attr source packetReceivedFromUpper
attr title "packets received from higher layer, sum(packetBytes)"
scalar baselineTestQoS.hostLVD[0].lo[0].lo passedUpPk:count 0
attr interpolationmode none
attr recordingmode count
attr source packetSentToUpper
attr title "packets passed to higher layer, count"
scalar baselineTestQoS.hostLVD[0].lo[0].lo passedUpPk:sum(packetBytes) 0
attr interpolationmode none
attr recordingmode sum(packetBytes)
attr source packetSentToUpper
attr title "packets passed to higher layer, sum(packetBytes)"
par baselineTestQoS.hostLVD[0].lo[0] typename "\"inet.linklayer.loopback.LoopbackInterface\""
par baselineTestQoS.hostLVD[0].lo[0] displayStringTextFormat "\"%a (%i)\\n%m\""
par baselineTestQoS.hostLVD[0].lo[0] recordPcap false
par baselineTestQoS.hostLVD[0].lo[0] numPcapRecorders 0
par baselineTestQoS.hostLVD[0].lo[0] interfaceTableModule "\"baselineTestQoS.hostLVD[0].interfaceTable\""
scalar baselineTestQoS.hostLVD[0].lo[0] packetDropInterfaceDown:count 0
attr interpolationmode none
attr recordingmode count
attr source packetDropReasonIsInterfaceDown(packetDropped)
attr title "packet drops: interface down, count"
scalar baselineTestQoS.hostLVD[0].lo[0] packetDropInterfaceDown:sum(packetBytes) 0
attr interpolationmode none
attr recordingmode sum(packetBytes)
attr source packetDropReasonIsInterfaceDown(packetDropped)
attr title "packet drops: interface down, sum(packetBytes)"
scalar baselineTestQoS.hostLVD[0].lo[0] packetDropNoCarrier:count 0
attr interpolationmode none
attr recordingmode count
attr source packetDropReasonIsNoCarrier(packetDropped)
attr title "packet drops: no carrier, count"
scalar baselineTestQoS.hostLVD[0].lo[0] packetDropNoCarrier:sum(packetBytes) 0
attr interpolationmode none
attr recordingmode sum(packetBytes)
attr source packetDropReasonIsNoCarrier(packetDropped)
attr title "packet drops: no carrier, sum(packetBytes)"
par baselineTestQoS.hostLVD[0].ppp[0].phys$i.channel typename "\"ned.IdealChannel\""
par baselineTestQoS.hostLVD[0].ppp[0].ppp.phys$o.channel typename "\"ned.IdealChannel\""
par baselineTestQoS.hostLVD[0].ppp[0].ppp.upperLayerOut.channel typename "\"ned.IdealChannel\""
par baselineTestQoS.hostLVD[0].ppp[0].upperLayerIn.channel typename "\"ned.IdealChannel\""
par baselineTestQoS.hostLVD[0].ppp[0].queue typename "\"inet.queueing.queue.DropTailQueue\""
par baselineTestQoS.hostLVD[0].ppp[0].queue displayStringTextFormat "\"contains %p pk (%l) pushed %u\\npulled %o removed %r dropped %d\""
par baselineTestQoS.hostLVD[0].ppp[0].queue packetCapacity 500
par baselineTestQoS.hostLVD[0].ppp[0].queue dataCapacity -1b
attr unit b
par baselineTestQoS.hostLVD[0].ppp[0].queue dropperClass "\"inet::queueing::PacketAtCollectionEndDropper\""
par baselineTestQoS.hostLVD[0].ppp[0].queue comparatorClass "\"\""
par baselineTestQoS.hostLVD[0].ppp[0].queue bufferModule "\"\""
scalar baselineTestQoS.hostLVD[0].ppp[0].queue queueLength:last nan
attr autoWarmupFilter false
attr interpolationmode sample-hold
attr recordingmode last
attr source "warmup(atomic(constant0(packetPushEnded) + count(packetPushStarted) - count(packetPulled) - count(packetRemoved) - count(packetDropped)))"
attr title "queue length, last"
attr unit pk
scalar baselineTestQoS.hostLVD[0].ppp[0].queue queueLength:max nan
attr autoWarmupFilter false
attr interpolationmode sample-hold
attr recordingmode max
attr source "warmup(atomic(constant0(packetPushEnded) + count(packetPushStarted) - count(packetPulled) - count(packetRemoved) - count(packetDropped)))"
attr title "queue length, max"
attr unit pk
scalar baselineTestQoS.hostLVD[0].ppp[0].queue queueLength:timeavg nan
attr autoWarmupFilter false
attr interpolationmode sample-hold
attr recordingmode timeavg
attr source "warmup(atomic(constant0(packetPushEnded) + count(packetPushStarted) - count(packetPulled) - count(packetRemoved) - count(packetDropped)))"
attr title "queue length, timeavg"
attr unit pk
scalar baselineTestQoS.hostLVD[0].ppp[0].queue queueBitLength:last nan
attr autoWarmupFilter false
attr interpolationmode sample-hold
attr recordingmode last
attr source "warmup(atomic(constant0(packetPushEnded) + sum(packetLength(packetPushStarted)) - sum(packetLength(packetPulled)) - sum(packetLength(packetRemoved)) - sum(packetLength(packetDropped))))"
attr title "queue bit length, last"
attr unit b
scalar baselineTestQoS.hostLVD[0].ppp[0].queue queueBitLength:max nan
attr autoWarmupFilter false
attr interpolationmode sample-hold
attr recordingmode max
attr source "warmup(atomic(constant0(packetPushEnded) + sum(packetLength(packetPushStarted)) - sum(packetLength(packetPulled)) - sum(packetLength(packetRemoved)) - sum(packetLength(packetDropped))))"
attr title "queue bit length, max"
attr unit b
scalar baselineTestQoS.hostLVD[0].ppp[0].queue queueBitLength:timeavg nan
attr autoWarmupFilter false
attr interpolationmode sample-hold
attr recordingmode timeavg
attr source "warmup(atomic(constant0(packetPushEnded) + sum(packetLength(packetPushStarted)) - sum(packetLength(packetPulled)) - sum(packetLength(packetRemoved)) - sum(packetLength(packetDropped))))"
attr title "queue bit length, timeavg"
attr unit b
statistic baselineTestQoS.hostLVD[0].ppp[0].queue queueingTime:histogram
field count 0
field mean nan
field stddev nan
field min nan
field max nan
field sum 0
field sqrsum 0
attr interpolationmode none
attr recordingmode histogram
attr source queueingTime(packetPulled)
attr title "queueing times"
attr unit s
bin	-inf	0
bin	0	0
bin	1	0
scalar baselineTestQoS.hostLVD[0].ppp[0].queue outgoingPackets:count 0
attr recordingmode count
attr source packetPulled
attr title "outgoing packets, count"
attr unit pk
scalar baselineTestQoS.hostLVD[0].ppp[0].queue outgoingPacketLengths:sum 0
attr interpolationmode none
attr recordingmode sum
attr source packetLength(packetPulled)
attr title "outgoing packet lengths, sum"
attr unit b
statistic baselineTestQoS.hostLVD[0].ppp[0].queue outgoingPacketLengths:histogram
field count 0
field mean nan
field stddev nan
field min nan
field max nan
field sum 0
field sqrsum 0
attr interpolationmode none
attr recordingmode histogram
attr source packetLength(packetPulled)
attr title "outgoing packet lengths"
attr unit b
bin	-inf	0
bin	0	0
bin	1	0
statistic baselineTestQoS.hostLVD[0].ppp[0].queue flowQueueingTime:histogram
field count 0
field mean nan
field stddev nan
field min nan
field max nan
field sum 0
field sqrsum 0
attr interpolationmode none
attr recordingmode histogram
attr source queueingTime(demuxFlow(packetPulled))
attr title "flow queueing times"
attr unit s
bin	-inf	0
bin	0	0
bin	1	0
scalar baselineTestQoS.hostLVD[0].ppp[0].queue incomingPackets:count 0
attr recordingmode count
attr source packetPushStarted
attr title "incoming packets, count"
attr unit pk
scalar baselineTestQoS.hostLVD[0].ppp[0].queue incomingPacketLengths:sum 0
attr interpolationmode none
attr recordingmode sum
attr source packetLength(packetPushStarted)
attr title "incoming packet lengths, sum"
attr unit b
statistic baselineTestQoS.hostLVD[0].ppp[0].queue incomingPacketLengths:histogram
field count 0
field mean nan
field stddev nan
field min nan
field max nan
field sum 0
field sqrsum 0
attr interpolationmode none
attr recordingmode histogram
attr source packetLength(packetPushStarted)
attr title "incoming packet lengths"
attr unit b
bin	-inf	0
bin	0	0
bin	1	0
scalar baselineTestQoS.hostLVD[0].ppp[0].queue droppedPacketsQueueOverflow:count 0
attr interpolationmode none
attr recordingmode count
attr source packetDropReasonIsQueueOverflow(packetDropped)
attr title "dropped packets: queue overflow, count"
attr unit pk
scalar baselineTestQoS.hostLVD[0].ppp[0].queue droppedPacketLengthsQueueOverflow:sum 0
attr interpolationmode none
attr recordingmode sum
attr source packetLength(packetDropReasonIsQueueOverflow(packetDropped))
attr title "dropped packet lengths: queue overflow, sum"
attr unit b
par baselineTestQoS.hostLVD[0].ppp[0].ppp typename "\"inet.linklayer.ppp.Ppp\""
par baselineTestQoS.hostLVD[0].ppp[0].ppp interfaceTableModule "\"baselineTestQoS.hostLVD[0].interfaceTable\""
par baselineTestQoS.hostLVD[0].ppp[0].ppp displayStringTextFormat "\"rate: %b\\nsent: %s, rcvd: %r\\nqueue: %q, drop: %d\""
par baselineTestQoS.hostLVD[0].ppp[0].ppp sendRawBytes false
par baselineTestQoS.hostLVD[0].ppp[0].ppp mtu 4470B
attr unit B
par baselineTestQoS.hostLVD[0].ppp[0].ppp stopOperationExtraTime -1s
attr unit s
par baselineTestQoS.hostLVD[0].ppp[0].ppp stopOperationTimeout 2s
attr unit s
scalar baselineTestQoS.hostLVD[0].ppp[0].ppp transmissionState:timeavg 0
attr interpolationmode sample-hold
attr recordingmode timeavg
attr source transmissionStateChanged
attr title "tx state, timeavg"
scalar baselineTestQoS.hostLVD[0].ppp[0].ppp rxPkOk:count 0
attr interpolationmode none
attr recordingmode count
attr source rxPkOk
attr title "packets received OK, count"
scalar baselineTestQoS.hostLVD[0].ppp[0].ppp rxPkOk:sum(packetBytes) 0
attr interpolationmode none
attr recordingmode sum(packetBytes)
attr source rxPkOk
attr title "packets received OK, sum(packetBytes)"
scalar baselineTestQoS.hostLVD[0].ppp[0].ppp txPk:count 0
attr interpolationmode none
attr recordingmode count
attr source packetSentToLower
attr title "packets transmitted, count"
scalar baselineTestQoS.hostLVD[0].ppp[0].ppp txPk:sum(packetBytes) 0
attr interpolationmode none
attr recordingmode sum(packetBytes)
attr source packetSentToLower
attr title "packets transmitted, sum(packetBytes)"
scalar baselineTestQoS.hostLVD[0].ppp[0].ppp rcvdPkFromHl:count 0
attr interpolationmode none
attr recordingmode count
attr source packetReceivedFromUpper
attr title "packets received from higher layer, count"
scalar baselineTestQoS.hostLVD[0].ppp[0].ppp rcvdPkFromHl:sum(packetBytes) 0
attr interpolationmode none
attr recordingmode sum(packetBytes)
attr source packetReceivedFromUpper
attr title "packets received from higher layer, sum(packetBytes)"
scalar baselineTestQoS.hostLVD[0].ppp[0].ppp passedUpPk:count 0
attr interpolationmode none
attr recordingmode count
attr source packetSentToUpper
attr title "packets passed to higher layer, count"
scalar baselineTestQoS.hostLVD[0].ppp[0].ppp passedUpPk:sum(packetBytes) 0
attr interpolationmode none
attr recordingmode sum(packetBytes)
attr source packetSentToUpper
attr title "packets passed to higher layer, sum(packetBytes)"
scalar baselineTestQoS.hostLVD[0].ppp[0].ppp packetDropIncorrectlyReceived:count 0
attr interpolationmode none
attr recordingmode count
attr source packetDropReasonIsIncorrectlyReceived(packetDropped)
attr title "packet drop: incorrectly received, count"
scalar baselineTestQoS.hostLVD[0].ppp[0].ppp packetDropIncorrectlyReceived:sum(packetBytes) 0
attr interpolationmode none
attr recordingmode sum(packetBytes)
attr source packetDropReasonIsIncorrectlyReceived(packetDropped)
attr title "packet drop: incorrectly received, sum(packetBytes)"
scalar baselineTestQoS.hostLVD[0].ppp[0].ppp packetDropInterfaceDown:count 0
attr interpolationmode none
attr recordingmode count
attr source packetDropReasonIsInterfaceDown(packetDropped)
attr title "packet drop: interface down, count"
scalar baselineTestQoS.hostLVD[0].ppp[0].ppp packetDropInterfaceDown:sum(packetBytes) 0
attr interpolationmode none
attr recordingmode sum(packetBytes)
attr source packetDropReasonIsInterfaceDown(packetDropped)
attr title "packet drop: interface down, sum(packetBytes)"
par baselineTestQoS.hostLVD[0].ppp[0] typename "\"inet.linklayer.ppp.PppInterface\""
par baselineTestQoS.hostLVD[0].ppp[0] displayStringTextFormat "\"%a (%i)\\n%m\""
par baselineTestQoS.hostLVD[0].ppp[0] recordPcap false
par baselineTestQoS.hostLVD[0].ppp[0] numPcapRecorders 0
par baselineTestQoS.hostLVD[0].ppp[0] interfaceTableModule "\"baselineTestQoS.hostLVD[0].interfaceTable\""
scalar baselineTestQoS.hostLVD[0].ppp[0] packetDropInterfaceDown:count 0
attr interpolationmode none
attr recordingmode count
attr source packetDropReasonIsInterfaceDown(packetDropped)
attr title "packet drops: interface down, count"
scalar baselineTestQoS.hostLVD[0].ppp[0] packetDropInterfaceDown:sum(packetBytes) 0
attr interpolationmode none
attr recordingmode sum(packetBytes)
attr source packetDropReasonIsInterfaceDown(packetDropped)
attr title "packet drops: interface down, sum(packetBytes)"
scalar baselineTestQoS.hostLVD[0].ppp[0] packetDropNoCarrier:count 0
attr interpolationmode none
attr recordingmode count
attr source packetDropReasonIsNoCarrier(packetDropped)
attr title "packet drops: no carrier, count"
scalar baselineTestQoS.hostLVD[0].ppp[0] packetDropNoCarrier:sum(packetBytes) 0
attr interpolationmode none
attr recordingmode sum(packetBytes)
attr source packetDropReasonIsNoCarrier(packetDropped)
attr title "packet drops: no carrier, sum(packetBytes)"
par baselineTestQoS.hostLVD[0].ipv4.transportIn.channel typename "\"ned.IdealChannel\""
par baselineTestQoS.hostLVD[0].ipv4.up.out[0].channel typename "\"ned.IdealChannel\""
par baselineTestQoS.hostLVD[0].ipv4.lp.out[2].channel typename "\"ned.IdealChannel\""
par baselineTestQoS.hostLVD[0].ipv4.ifIn.channel typename "\"ned.IdealChannel\""
par baselineTestQoS.hostLVD[0].ipv4.configurator typename "\"inet.networklayer.configurator.ipv4.Ipv4NodeConfigurator\""
par baselineTestQoS.hostLVD[0].ipv4.configurator interfaceTableModule "\"baselineTestQoS.hostLVD[0].interfaceTable\""
par baselineTestQoS.hostLVD[0].ipv4.configurator routingTableModule "\"baselineTestQoS.hostLVD[0].ipv4.routingTable\""
par baselineTestQoS.hostLVD[0].ipv4.configurator networkConfiguratorModule "\"configurator\""
par baselineTestQoS.hostLVD[0].ipv4.configurator configureRoutingTable true
par baselineTestQoS.hostLVD[0].ipv4.routingTable typename "\"inet.networklayer.ipv4.Ipv4RoutingTable\""
par baselineTestQoS.hostLVD[0].ipv4.routingTable interfaceTableModule "\"baselineTestQoS.hostLVD[0].interfaceTable\""
par baselineTestQoS.hostLVD[0].ipv4.routingTable routerId "\"auto\""
par baselineTestQoS.hostLVD[0].ipv4.routingTable netmaskRoutes "\"*\""
par baselineTestQoS.hostLVD[0].ipv4.routingTable forwarding false
par baselineTestQoS.hostLVD[0].ipv4.routingTable multicastForwarding false
par baselineTestQoS.hostLVD[0].ipv4.routingTable useAdminDist false
par baselineTestQoS.hostLVD[0].ipv4.routingTable routingFile "\"\""
par baselineTestQoS.hostLVD[0].ipv4.natTable typename "\"inet.networklayer.ipv4.Ipv4NatTable\""
par baselineTestQoS.hostLVD[0].ipv4.natTable networkProtocolModule "\"^.ip\""
par baselineTestQoS.hostLVD[0].ipv4.natTable config "<config/> at content:1"
par baselineTestQoS.hostLVD[0].ipv4.up typename "\"inet.common.MessageDispatcher\""
par baselineTestQoS.hostLVD[0].ipv4.up displayStringTextFormat "\"processed %p pk (%l)\""
par baselineTestQoS.hostLVD[0].ipv4.up forwardServiceRegistration true
par baselineTestQoS.hostLVD[0].ipv4.up forwardProtocolRegistration true
par baselineTestQoS.hostLVD[0].ipv4.igmp typename "\"inet.networklayer.ipv4.Igmpv2\""
par baselineTestQoS.hostLVD[0].ipv4.igmp interfaceTableModule "\"baselineTestQoS.hostLVD[0].interfaceTable\""
par baselineTestQoS.hostLVD[0].ipv4.igmp routingTableModule "\"baselineTestQoS.hostLVD[0].ipv4.routingTable\""
par baselineTestQoS.hostLVD[0].ipv4.igmp crcMode "\"computed\""
attr enum declared,computed
par baselineTestQoS.hostLVD[0].ipv4.igmp enabled true
par baselineTestQoS.hostLVD[0].ipv4.igmp robustnessVariable 2
par baselineTestQoS.hostLVD[0].ipv4.igmp queryInterval 125s
attr unit s
par baselineTestQoS.hostLVD[0].ipv4.igmp queryResponseInterval 10s
attr unit s
par baselineTestQoS.hostLVD[0].ipv4.igmp groupMembershipInterval 260s
attr unit s
par baselineTestQoS.hostLVD[0].ipv4.igmp otherQuerierPresentInterval 255s
attr unit s
par baselineTestQoS.hostLVD[0].ipv4.igmp startupQueryInterval 31.25s
attr unit s
par baselineTestQoS.hostLVD[0].ipv4.igmp startupQueryCount 2
par baselineTestQoS.hostLVD[0].ipv4.igmp lastMemberQueryInterval 1s
attr unit s
par baselineTestQoS.hostLVD[0].ipv4.igmp lastMemberQueryCount 2
par baselineTestQoS.hostLVD[0].ipv4.igmp unsolicitedReportInterval 10s
attr unit s
par baselineTestQoS.hostLVD[0].ipv4.icmp typename "\"inet.networklayer.ipv4.Icmp\""
par baselineTestQoS.hostLVD[0].ipv4.icmp interfaceTableModule "\"baselineTestQoS.hostLVD[0].interfaceTable\""
par baselineTestQoS.hostLVD[0].ipv4.icmp routingTableModule "\"baselineTestQoS.hostLVD[0].ipv4.routingTable\""
par baselineTestQoS.hostLVD[0].ipv4.icmp crcMode "\"computed\""
attr enum declared,computed
attr mutable ""
par baselineTestQoS.hostLVD[0].ipv4.icmp quoteLength 8B
attr mutable ""
attr unit B
par baselineTestQoS.hostLVD[0].ipv4.mp typename "\"inet.common.MessageDispatcher\""
par baselineTestQoS.hostLVD[0].ipv4.mp displayStringTextFormat "\"processed %p pk (%l)\""
par baselineTestQoS.hostLVD[0].ipv4.mp forwardServiceRegistration true
par baselineTestQoS.hostLVD[0].ipv4.mp forwardProtocolRegistration true
par baselineTestQoS.hostLVD[0].ipv4.ip typename "\"inet.networklayer.ipv4.Ipv4\""
par baselineTestQoS.hostLVD[0].ipv4.ip interfaceTableModule "\"baselineTestQoS.hostLVD[0].interfaceTable\""
par baselineTestQoS.hostLVD[0].ipv4.ip routingTableModule "\"baselineTestQoS.hostLVD[0].ipv4.routingTable\""
par baselineTestQoS.hostLVD[0].ipv4.ip arpModule "\"baselineTestQoS.hostLVD[0].ipv4.arp\""
par baselineTestQoS.hostLVD[0].ipv4.ip icmpModule "\"baselineTestQoS.hostLVD[0].ipv4.icmp\""
par baselineTestQoS.hostLVD[0].ipv4.ip crcMode "\"computed\""
attr enum declared,computed
par baselineTestQoS.hostLVD[0].ipv4.ip timeToLive 32
par baselineTestQoS.hostLVD[0].ipv4.ip multicastTimeToLive 32
par baselineTestQoS.hostLVD[0].ipv4.ip fragmentTimeout 60s
attr unit s
par baselineTestQoS.hostLVD[0].ipv4.ip limitedBroadcast false
par baselineTestQoS.hostLVD[0].ipv4.ip directBroadcastInterfaces "\"\""
scalar baselineTestQoS.hostLVD[0].ipv4.ip packetDropAddressResolutionFailed:count 0
attr interpolationmode none
attr recordingmode count
attr source packetDropReasonIsAddressResolutionFailed(packetDropped)
attr title "packet drop: address resolution failed, count"
scalar baselineTestQoS.hostLVD[0].ipv4.ip packetDropAddressResolutionFailed:sum(packetBytes) 0
attr interpolationmode none
attr recordingmode sum(packetBytes)
attr source packetDropReasonIsAddressResolutionFailed(packetDropped)
attr title "packet drop: address resolution failed, sum(packetBytes)"
scalar baselineTestQoS.hostLVD[0].ipv4.ip packetDropHopLimitReached:count 0
attr interpolationmode none
attr recordingmode count
attr source packetDropReasonIsHopLimitReached(packetDropped)
attr title "packet drop: hop limit reached, count"
scalar baselineTestQoS.hostLVD[0].ipv4.ip packetDropHopLimitReached:sum(packetBytes) 0
attr interpolationmode none
attr recordingmode sum(packetBytes)
attr source packetDropReasonIsHopLimitReached(packetDropped)
attr title "packet drop: hop limit reached, sum(packetBytes)"
scalar baselineTestQoS.hostLVD[0].ipv4.ip packetDropForwardingDisabled:count 0
attr interpolationmode none
attr recordingmode count
attr source packetDropReasonIsForwardingDisabled(packetDropped)
attr title "packet drop: forwarding disabled, count"
scalar baselineTestQoS.hostLVD[0].ipv4.ip packetDropForwardingDisabled:sum(packetBytes) 0
attr interpolationmode none
attr recordingmode sum(packetBytes)
attr source packetDropReasonIsForwardingDisabled(packetDropped)
attr title "packet drop: forwarding disabled, sum(packetBytes)"
scalar baselineTestQoS.hostLVD[0].ipv4.ip packetDropNoInterfaceFound:count 0
attr interpolationmode none
attr recordingmode count
attr source packetDropReasonIsNoInterfaceFound(packetDropped)
attr title "packet drop: no interface found, count"
scalar baselineTestQoS.hostLVD[0].ipv4.ip packetDropNoInterfaceFound:sum(packetBytes) 0
attr interpolationmode none
attr recordingmode sum(packetBytes)
attr source packetDropReasonIsNoInterfaceFound(packetDropped)
attr title "packet drop: no interface found, sum(packetBytes)"
scalar baselineTestQoS.hostLVD[0].ipv4.ip packetDropNoRouteFound:count 0
attr interpolationmode none
attr recordingmode count
attr source packetDropReasonIsNoRouteFound(packetDropped)
attr title "packet drop: no route found, count"
scalar baselineTestQoS.hostLVD[0].ipv4.ip packetDropNoRouteFound:sum(packetBytes) 0
attr interpolationmode none
attr recordingmode sum(packetBytes)
attr source packetDropReasonIsNoRouteFound(packetDropped)
attr title "packet drop: no route found, sum(packetBytes)"
scalar baselineTestQoS.hostLVD[0].ipv4.ip packetDropUndefined:count 0
attr interpolationmode none
attr recordingmode count
attr source packetDropReasonIsUndefined(packetDropped)
attr title "packet drop: undefined, count"
scalar baselineTestQoS.hostLVD[0].ipv4.ip packetDropUndefined:sum(packetBytes) 0
attr interpolationmode none
attr recordingmode sum(packetBytes)
attr source packetDropReasonIsUndefined(packetDropped)
attr title "packet drop: undefined, sum(packetBytes)"
par baselineTestQoS.hostLVD[0].ipv4.arp typename "\"inet.networklayer.arp.ipv4.Arp\""
par baselineTestQoS.hostLVD[0].ipv4.arp interfaceTableModule "\"baselineTestQoS.hostLVD[0].interfaceTable\""
par baselineTestQoS.hostLVD[0].ipv4.arp routingTableModule "\"baselineTestQoS.hostLVD[0].ipv4.routingTable\""
par baselineTestQoS.hostLVD[0].ipv4.arp retryTimeout 1s
attr unit s
par baselineTestQoS.hostLVD[0].ipv4.arp retryCount 3
par baselineTestQoS.hostLVD[0].ipv4.arp cacheTimeout 120s
attr unit s
par baselineTestQoS.hostLVD[0].ipv4.arp proxyArpInterfaces "\"\""
scalar baselineTestQoS.hostLVD[0].ipv4.arp arpResolutionFailed:count 0
attr recordingmode count
attr title "ARP failed resolutions, count"
scalar baselineTestQoS.hostLVD[0].ipv4.arp arpResolutionCompleted:count 0
attr recordingmode count
attr title "ARP completed resolutions, count"
scalar baselineTestQoS.hostLVD[0].ipv4.arp arpResolutionInitiated:count 0
attr recordingmode count
attr title "ARP initiated resolutions, count"
scalar baselineTestQoS.hostLVD[0].ipv4.arp arpReplySent:count 0
attr recordingmode count
attr source arpReplySent
attr title "ARP replies sent, count"
scalar baselineTestQoS.hostLVD[0].ipv4.arp arpReplySent:sum(packetBytes) 0
attr recordingmode sum(packetBytes)
attr source arpReplySent
attr title "ARP replies sent, sum(packetBytes)"
scalar baselineTestQoS.hostLVD[0].ipv4.arp arpRequestSent:count 0
attr recordingmode count
attr source arpRequestSent
attr title "ARP request sent, count"
scalar baselineTestQoS.hostLVD[0].ipv4.arp arpRequestSent:sum(packetBytes) 0
attr recordingmode sum(packetBytes)
attr source arpRequestSent
attr title "ARP request sent, sum(packetBytes)"
par baselineTestQoS.hostLVD[0].ipv4.lp typename "\"inet.common.MessageDispatcher\""
par baselineTestQoS.hostLVD[0].ipv4.lp displayStringTextFormat "\"processed %p pk (%l)\""
par baselineTestQoS.hostLVD[0].ipv4.lp forwardServiceRegistration true
par baselineTestQoS.hostLVD[0].ipv4.lp forwardProtocolRegistration true
par baselineTestQoS.hostLVD[0].ipv4 typename "\"inet.networklayer.ipv4.Ipv4NetworkLayer\""
par baselineTestQoS.hostLVD[0].ipv4 forwarding false
par baselineTestQoS.hostLVD[0].ipv4 multicastForwarding false
par baselineTestQoS.hostLVD[0].ipv4 interfaceTableModule "\"baselineTestQoS.hostLVD[0].interfaceTable\""
par baselineTestQoS.hostLVD[0].ipv4 displayStringTextFormat "\"%i\""
par baselineTestQoS.hostLVD[0].nl typename "\"inet.common.MessageDispatcher\""
par baselineTestQoS.hostLVD[0].nl displayStringTextFormat "\"processed %p pk (%l)\""
par baselineTestQoS.hostLVD[0].nl forwardServiceRegistration true
par baselineTestQoS.hostLVD[0].nl forwardProtocolRegistration true
par baselineTestQoS.hostLVD[0].udp.crcInsertion typename "\"inet.transportlayer.udp.UdpCrcInsertionHook\""
par baselineTestQoS.hostLVD[0].udp typename "\"inet.transportlayer.udp.Udp\""
par baselineTestQoS.hostLVD[0].udp interfaceTableModule "\"baselineTestQoS.hostLVD[0].interfaceTable\""
par baselineTestQoS.hostLVD[0].udp icmpModule "\"^.ipv4.icmp\""
par baselineTestQoS.hostLVD[0].udp icmpv6Module "\"^.ipv6.icmpv6\""
par baselineTestQoS.hostLVD[0].udp crcMode "\"computed\""
attr enum disabled,declared,computed
par baselineTestQoS.hostLVD[0].udp defaultMulticastLoop true
scalar baselineTestQoS.hostLVD[0].udp packetReceived:count 0
attr interpolationmode none
attr recordingmode count
attr source packetReceived
attr title "packets received, count"
scalar baselineTestQoS.hostLVD[0].udp packetReceived:sum(packetBytes) 0
attr interpolationmode none
attr recordingmode sum(packetBytes)
attr source packetReceived
attr title "packets received, sum(packetBytes)"
scalar baselineTestQoS.hostLVD[0].udp packetSent:count 0
attr interpolationmode none
attr recordingmode count
attr source packetSent
attr title "packets sent, count"
scalar baselineTestQoS.hostLVD[0].udp packetSent:sum(packetBytes) 0
attr interpolationmode none
attr recordingmode sum(packetBytes)
attr source packetSent
attr title "packets sent, sum(packetBytes)"
scalar baselineTestQoS.hostLVD[0].udp passedUpPk:count 0
attr interpolationmode none
attr recordingmode count
attr source packetSentToUpper
attr title "packets passed up, count"
scalar baselineTestQoS.hostLVD[0].udp droppedPkWrongPort:count 0
attr interpolationmode none
attr recordingmode count
attr source packetDropReasonIsNoPortFound(packetDropped)
attr title "packets dropped (wrong port), count"
scalar baselineTestQoS.hostLVD[0].udp droppedPkBadChecksum:count 0
attr interpolationmode none
attr recordingmode count
attr source packetDropReasonIsIncorrectlyReceived(packetDropped)
attr title "packets dropped (checksum error), count"
par baselineTestQoS.hostLVD[0].tcp.crcInsertion typename "\"inet.transportlayer.tcp_common.TcpCrcInsertionHook\""
par baselineTestQoS.hostLVD[0].tcp typename "\"inet.transportlayer.tcp.Tcp\""
par baselineTestQoS.hostLVD[0].tcp crcMode "\"computed\""
attr enum declared,computed
par baselineTestQoS.hostLVD[0].tcp advertisedWindow 65535
par baselineTestQoS.hostLVD[0].tcp delayedAcksEnabled false
par baselineTestQoS.hostLVD[0].tcp nagleEnabled true
par baselineTestQoS.hostLVD[0].tcp limitedTransmitEnabled false
par baselineTestQoS.hostLVD[0].tcp increasedIWEnabled false
par baselineTestQoS.hostLVD[0].tcp sackSupport false
par baselineTestQoS.hostLVD[0].tcp windowScalingSupport false
par baselineTestQoS.hostLVD[0].tcp windowScalingFactor -1
par baselineTestQoS.hostLVD[0].tcp timestampSupport false
par baselineTestQoS.hostLVD[0].tcp mss 1452
par baselineTestQoS.hostLVD[0].tcp msl 120s
attr unit s
par baselineTestQoS.hostLVD[0].tcp tcpAlgorithmClass "\"TcpReno\""
attr enum TcpVegas,TcpWestwood,TcpNewReno,TcpReno,TcpTahoe,TcpNoCongestionControl
par baselineTestQoS.hostLVD[0].tcp useDataNotification false
par baselineTestQoS.hostLVD[0].tcp dupthresh 3
par baselineTestQoS.hostLVD[0].tcp initialSsthresh 4294967295
par baselineTestQoS.hostLVD[0].tcp stopOperationExtraTime 0s
attr unit s
par baselineTestQoS.hostLVD[0].tcp stopOperationTimeout 2s
attr unit s
par baselineTestQoS.hostLVD[0].tcp ecnWillingness false
par baselineTestQoS.hostLVD[0].tcp dctcpGamma 0.0625
par baselineTestQoS.hostLVD[0].tn typename "\"inet.common.MessageDispatcher\""
par baselineTestQoS.hostLVD[0].tn displayStringTextFormat "\"processed %p pk (%l)\""
par baselineTestQoS.hostLVD[0].tn forwardServiceRegistration true
par baselineTestQoS.hostLVD[0].tn forwardProtocolRegistration true
par baselineTestQoS.hostLVD[0].at typename "\"inet.common.MessageDispatcher\""
par baselineTestQoS.hostLVD[0].at displayStringTextFormat "\"processed %p pk (%l)\""
par baselineTestQoS.hostLVD[0].at forwardServiceRegistration true
par baselineTestQoS.hostLVD[0].at forwardProtocolRegistration true
par baselineTestQoS.hostLVD[0] typename "\"inet.node.inet.StandardHost\""
par baselineTestQoS.hostLVD[0] hasStatus false
par baselineTestQoS.hostLVD[0] osgModel "\"\""
par baselineTestQoS.hostLVD[0] osgModelColor "\"\""
par baselineTestQoS.hostLVD[0] canvasImage "\"\""
par baselineTestQoS.hostLVD[0] canvasImageColor "\"\""
par baselineTestQoS.hostLVD[0] recordPcap false
par baselineTestQoS.hostLVD[0] numPcapRecorders 0
par baselineTestQoS.hostLVD[0] numLoInterfaces 1
par baselineTestQoS.hostLVD[0] numWlanInterfaces 0
par baselineTestQoS.hostLVD[0] numEthInterfaces 0
par baselineTestQoS.hostLVD[0] numPppInterfaces 0
par baselineTestQoS.hostLVD[0] numTunInterfaces 0
par baselineTestQoS.hostLVD[0] numVirtInterfaces 0
par baselineTestQoS.hostLVD[0] fcsMode "\"declared\""
attr enum declared,computed
par baselineTestQoS.hostLVD[0] hasIpv4 true
par baselineTestQoS.hostLVD[0] hasIpv6 false
par baselineTestQoS.hostLVD[0] hasGn false
par baselineTestQoS.hostLVD[0] forwarding false
par baselineTestQoS.hostLVD[0] multicastForwarding false
par baselineTestQoS.hostLVD[0] hasUdp true
par baselineTestQoS.hostLVD[0] hasTcp true
par baselineTestQoS.hostLVD[0] hasSctp false
par baselineTestQoS.hostLVD[0] numApps 0
par baselineTestQoS.hostFDO[0].pppg$i[0].channel typename "\"ned.IdealChannel\""
par baselineTestQoS.hostFDO[0].ppp[0].phys$o.channel typename "\"ned.IdealChannel\""
par baselineTestQoS.hostFDO[0].interfaceTable typename "\"inet.networklayer.common.InterfaceTable\""
par baselineTestQoS.hostFDO[0].interfaceTable displayAddresses false
par baselineTestQoS.hostFDO[0].cb typename "\"inet.common.MessageDispatcher\""
par baselineTestQoS.hostFDO[0].cb displayStringTextFormat "\"processed %p pk (%l)\""
par baselineTestQoS.hostFDO[0].cb forwardServiceRegistration true
par baselineTestQoS.hostFDO[0].cb forwardProtocolRegistration true
par baselineTestQoS.hostFDO[0].bl typename "\"inet.common.MessageDispatcher\""
par baselineTestQoS.hostFDO[0].bl displayStringTextFormat "\"processed %p pk (%l)\""
par baselineTestQoS.hostFDO[0].bl forwardServiceRegistration true
par baselineTestQoS.hostFDO[0].bl forwardProtocolRegistration true
par baselineTestQoS.hostFDO[0].li typename "\"inet.common.MessageDispatcher\""
par baselineTestQoS.hostFDO[0].li displayStringTextFormat "\"processed %p pk (%l)\""
par baselineTestQoS.hostFDO[0].li forwardServiceRegistration true
par baselineTestQoS.hostFDO[0].li forwardProtocolRegistration true
par baselineTestQoS.hostFDO[0].lo[0].upperLayerIn.channel typename "\"ned.IdealChannel\""
par baselineTestQoS.hostFDO[0].lo[0].lo.upperLayerOut.channel typename "\"ned.IdealChannel\""
par baselineTestQoS.hostFDO[0].lo[0].lo typename "\"inet.linklayer.loopback.Loopback\""
par baselineTestQoS.hostFDO[0].lo[0].lo interfaceTableModule "\"baselineTestQoS.hostFDO[0].interfaceTable\""
par baselineTestQoS.hostFDO[0].lo[0].lo mtu 4470B
attr unit B
scalar baselineTestQoS.hostFDO[0].lo[0].lo rcvdPkFromHl:count 0
attr interpolationmode none
attr recordingmode count
attr source packetReceivedFromUpper
attr title "packets received from higher layer, count"
scalar baselineTestQoS.hostFDO[0].lo[0].lo rcvdPkFromHl:sum(packetBytes) 0
attr interpolationmode none
attr recordingmode sum(packetBytes)
attr source packetReceivedFromUpper
attr title "packets received from higher layer, sum(packetBytes)"
scalar baselineTestQoS.hostFDO[0].lo[0].lo passedUpPk:count 0
attr interpolationmode none
[...]
attr title "packets received OK, sum(packetBytes)"
scalar baselineTestQoS.servercVIP.ppp[0].ppp txPk:count 0
attr interpolationmode none
attr recordingmode count
attr source packetSentToLower
attr title "packets transmitted, count"
scalar baselineTestQoS.servercVIP.ppp[0].ppp txPk:sum(packetBytes) 0
attr interpolationmode none
attr recordingmode sum(packetBytes)
attr source packetSentToLower
attr title "packets transmitted, sum(packetBytes)"
scalar baselineTestQoS.servercVIP.ppp[0].ppp rcvdPkFromHl:count 0
attr interpolationmode none
attr recordingmode count
attr source packetReceivedFromUpper
attr title "packets received from higher layer, count"
scalar baselineTestQoS.servercVIP.ppp[0].ppp rcvdPkFromHl:sum(packetBytes) 0
attr interpolationmode none
attr recordingmode sum(packetBytes)
attr source packetReceivedFromUpper
attr title "packets received from higher layer, sum(packetBytes)"
scalar baselineTestQoS.servercVIP.ppp[0].ppp passedUpPk:count 0
attr interpolationmode none
attr recordingmode count
attr source packetSentToUpper
attr title "packets passed to higher layer, count"
scalar baselineTestQoS.servercVIP.ppp[0].ppp passedUpPk:sum(packetBytes) 0
attr interpolationmode none
attr recordingmode sum(packetBytes)
attr source packetSentToUpper
attr title "packets passed to higher layer, sum(packetBytes)"
scalar baselineTestQoS.servercVIP.ppp[0].ppp packetDropIncorrectlyReceived:count 0
attr interpolationmode none
attr recordingmode count
attr source packetDropReasonIsIncorrectlyReceived(packetDropped)
attr title "packet drop: incorrectly received, count"
scalar baselineTestQoS.servercVIP.ppp[0].ppp packetDropIncorrectlyReceived:sum(packetBytes) 0
attr interpolationmode none
attr recordingmode sum(packetBytes)
attr source packetDropReasonIsIncorrectlyReceived(packetDropped)
attr title "packet drop: incorrectly received, sum(packetBytes)"
scalar baselineTestQoS.servercVIP.ppp[0].ppp packetDropInterfaceDown:count 0
attr interpolationmode none
attr recordingmode count
attr source packetDropReasonIsInterfaceDown(packetDropped)
attr title "packet drop: interface down, count"
scalar baselineTestQoS.servercVIP.ppp[0].ppp packetDropInterfaceDown:sum(packetBytes) 0
attr interpolationmode none
attr recordingmode sum(packetBytes)
attr source packetDropReasonIsInterfaceDown(packetDropped)
attr title "packet drop: interface down, sum(packetBytes)"
par baselineTestQoS.servercVIP.ppp[0] typename "\"inet.linklayer.ppp.PppInterface\""
par baselineTestQoS.servercVIP.ppp[0] displayStringTextFormat "\"%a (%i)\\n%m\""
par baselineTestQoS.servercVIP.ppp[0] recordPcap false
par baselineTestQoS.servercVIP.ppp[0] numPcapRecorders 0
par baselineTestQoS.servercVIP.ppp[0] interfaceTableModule "\"baselineTestQoS.servercVIP.interfaceTable\""
scalar baselineTestQoS.servercVIP.ppp[0] packetDropInterfaceDown:count 0
attr interpolationmode none
attr recordingmode count
attr source packetDropReasonIsInterfaceDown(packetDropped)
attr title "packet drops: interface down, count"
scalar baselineTestQoS.servercVIP.ppp[0] packetDropInterfaceDown:sum(packetBytes) 0
attr interpolationmode none
attr recordingmode sum(packetBytes)
attr source packetDropReasonIsInterfaceDown(packetDropped)
attr title "packet drops: interface down, sum(packetBytes)"
scalar baselineTestQoS.servercVIP.ppp[0] packetDropNoCarrier:count 0
attr interpolationmode none
attr recordingmode count
attr source packetDropReasonIsNoCarrier(packetDropped)
attr title "packet drops: no carrier, count"
scalar baselineTestQoS.servercVIP.ppp[0] packetDropNoCarrier:sum(packetBytes) 0
attr interpolationmode none
attr recordingmode sum(packetBytes)
attr source packetDropReasonIsNoCarrier(packetDropped)
attr title "packet drops: no carrier, sum(packetBytes)"
par baselineTestQoS.servercVIP.ipv4.transportIn.channel typename "\"ned.IdealChannel\""
par baselineTestQoS.servercVIP.ipv4.up.out[0].channel typename "\"ned.IdealChannel\""
par baselineTestQoS.servercVIP.ipv4.lp.out[2].channel typename "\"ned.IdealChannel\""
par baselineTestQoS.servercVIP.ipv4.ifIn.channel typename "\"ned.IdealChannel\""
par baselineTestQoS.servercVIP.ipv4.configurator typename "\"inet.networklayer.configurator.ipv4.Ipv4NodeConfigurator\""
par baselineTestQoS.servercVIP.ipv4.configurator interfaceTableModule "\"baselineTestQoS.servercVIP.interfaceTable\""
par baselineTestQoS.servercVIP.ipv4.configurator routingTableModule "\"baselineTestQoS.servercVIP.ipv4.routingTable\""
par baselineTestQoS.servercVIP.ipv4.configurator networkConfiguratorModule "\"configurator\""
par baselineTestQoS.servercVIP.ipv4.configurator configureRoutingTable true
par baselineTestQoS.servercVIP.ipv4.routingTable typename "\"inet.networklayer.ipv4.Ipv4RoutingTable\""
par baselineTestQoS.servercVIP.ipv4.routingTable interfaceTableModule "\"baselineTestQoS.servercVIP.interfaceTable\""
par baselineTestQoS.servercVIP.ipv4.routingTable routerId "\"auto\""
par baselineTestQoS.servercVIP.ipv4.routingTable netmaskRoutes "\"*\""
par baselineTestQoS.servercVIP.ipv4.routingTable forwarding false
par baselineTestQoS.servercVIP.ipv4.routingTable multicastForwarding false
par baselineTestQoS.servercVIP.ipv4.routingTable useAdminDist false
par baselineTestQoS.servercVIP.ipv4.routingTable routingFile "\"\""
par baselineTestQoS.servercVIP.ipv4.natTable typename "\"inet.networklayer.ipv4.Ipv4NatTable\""
par baselineTestQoS.servercVIP.ipv4.natTable networkProtocolModule "\"^.ip\""
par baselineTestQoS.servercVIP.ipv4.natTable config "<config/> at content:1"
par baselineTestQoS.servercVIP.ipv4.up typename "\"inet.common.MessageDispatcher\""
par baselineTestQoS.servercVIP.ipv4.up displayStringTextFormat "\"processed %p pk (%l)\""
par baselineTestQoS.servercVIP.ipv4.up forwardServiceRegistration true
par baselineTestQoS.servercVIP.ipv4.up forwardProtocolRegistration true
par baselineTestQoS.servercVIP.ipv4.igmp typename "\"inet.networklayer.ipv4.Igmpv2\""
par baselineTestQoS.servercVIP.ipv4.igmp interfaceTableModule "\"baselineTestQoS.servercVIP.interfaceTable\""
par baselineTestQoS.servercVIP.ipv4.igmp routingTableModule "\"baselineTestQoS.servercVIP.ipv4.routingTable\""
par baselineTestQoS.servercVIP.ipv4.igmp crcMode "\"computed\""
attr enum declared,computed
par baselineTestQoS.servercVIP.ipv4.igmp enabled true
par baselineTestQoS.servercVIP.ipv4.igmp robustnessVariable 2
par baselineTestQoS.servercVIP.ipv4.igmp queryInterval 125s
attr unit s
par baselineTestQoS.servercVIP.ipv4.igmp queryResponseInterval 10s
attr unit s
par baselineTestQoS.servercVIP.ipv4.igmp groupMembershipInterval 260s
attr unit s
par baselineTestQoS.servercVIP.ipv4.igmp otherQuerierPresentInterval 255s
attr unit s
par baselineTestQoS.servercVIP.ipv4.igmp startupQueryInterval 31.25s
attr unit s
par baselineTestQoS.servercVIP.ipv4.igmp startupQueryCount 2
par baselineTestQoS.servercVIP.ipv4.igmp lastMemberQueryInterval 1s
attr unit s
par baselineTestQoS.servercVIP.ipv4.igmp lastMemberQueryCount 2
par baselineTestQoS.servercVIP.ipv4.igmp unsolicitedReportInterval 10s
attr unit s
par baselineTestQoS.servercVIP.ipv4.icmp typename "\"inet.networklayer.ipv4.Icmp\""
par baselineTestQoS.servercVIP.ipv4.icmp interfaceTableModule "\"baselineTestQoS.servercVIP.interfaceTable\""
par baselineTestQoS.servercVIP.ipv4.icmp routingTableModule "\"baselineTestQoS.servercVIP.ipv4.routingTable\""
par baselineTestQoS.servercVIP.ipv4.icmp crcMode "\"computed\""
attr enum declared,computed
attr mutable ""
par baselineTestQoS.servercVIP.ipv4.icmp quoteLength 8B
attr mutable ""
attr unit B
par baselineTestQoS.servercVIP.ipv4.mp typename "\"inet.common.MessageDispatcher\""
par baselineTestQoS.servercVIP.ipv4.mp displayStringTextFormat "\"processed %p pk (%l)\""
par baselineTestQoS.servercVIP.ipv4.mp forwardServiceRegistration true
par baselineTestQoS.servercVIP.ipv4.mp forwardProtocolRegistration true
par baselineTestQoS.servercVIP.ipv4.ip typename "\"inet.networklayer.ipv4.Ipv4\""
par baselineTestQoS.servercVIP.ipv4.ip interfaceTableModule "\"baselineTestQoS.servercVIP.interfaceTable\""
par baselineTestQoS.servercVIP.ipv4.ip routingTableModule "\"baselineTestQoS.servercVIP.ipv4.routingTable\""
par baselineTestQoS.servercVIP.ipv4.ip arpModule "\"baselineTestQoS.servercVIP.ipv4.arp\""
par baselineTestQoS.servercVIP.ipv4.ip icmpModule "\"baselineTestQoS.servercVIP.ipv4.icmp\""
par baselineTestQoS.servercVIP.ipv4.ip crcMode "\"computed\""
attr enum declared,computed
par baselineTestQoS.servercVIP.ipv4.ip timeToLive 32
par baselineTestQoS.servercVIP.ipv4.ip multicastTimeToLive 32
par baselineTestQoS.servercVIP.ipv4.ip fragmentTimeout 60s
attr unit s
par baselineTestQoS.servercVIP.ipv4.ip limitedBroadcast false
par baselineTestQoS.servercVIP.ipv4.ip directBroadcastInterfaces "\"\""
scalar baselineTestQoS.servercVIP.ipv4.ip packetDropAddressResolutionFailed:count 0
attr interpolationmode none
attr recordingmode count
attr source packetDropReasonIsAddressResolutionFailed(packetDropped)
attr title "packet drop: address resolution failed, count"
scalar baselineTestQoS.servercVIP.ipv4.ip packetDropAddressResolutionFailed:sum(packetBytes) 0
attr interpolationmode none
attr recordingmode sum(packetBytes)
attr source packetDropReasonIsAddressResolutionFailed(packetDropped)
attr title "packet drop: address resolution failed, sum(packetBytes)"
scalar baselineTestQoS.servercVIP.ipv4.ip packetDropHopLimitReached:count 0
attr interpolationmode none
attr recordingmode count
attr source packetDropReasonIsHopLimitReached(packetDropped)
attr title "packet drop: hop limit reached, count"
scalar baselineTestQoS.servercVIP.ipv4.ip packetDropHopLimitReached:sum(packetBytes) 0
attr interpolationmode none
attr recordingmode sum(packetBytes)
attr source packetDropReasonIsHopLimitReached(packetDropped)
attr title "packet drop: hop limit reached, sum(packetBytes)"
scalar baselineTestQoS.servercVIP.ipv4.ip packetDropForwardingDisabled:count 0
attr interpolationmode none
attr recordingmode count
attr source packetDropReasonIsForwardingDisabled(packetDropped)
attr title "packet drop: forwarding disabled, count"
scalar baselineTestQoS.servercVIP.ipv4.ip packetDropForwardingDisabled:sum(packetBytes) 0
attr interpolationmode none
attr recordingmode sum(packetBytes)
attr source packetDropReasonIsForwardingDisabled(packetDropped)
attr title "packet drop: forwarding disabled, sum(packetBytes)"
scalar baselineTestQoS.servercVIP.ipv4.ip packetDropNoInterfaceFound:count 0
attr interpolationmode none
attr recordingmode count
attr source packetDropReasonIsNoInterfaceFound(packetDropped)
attr title "packet drop: no interface found, count"
scalar baselineTestQoS.servercVIP.ipv4.ip packetDropNoInterfaceFound:sum(packetBytes) 0
attr interpolationmode none
attr recordingmode sum(packetBytes)
attr source packetDropReasonIsNoInterfaceFound(packetDropped)
attr title "packet drop: no interface found, sum(packetBytes)"
scalar baselineTestQoS.servercVIP.ipv4.ip packetDropNoRouteFound:count 0
attr interpolationmode none
attr recordingmode count
attr source packetDropReasonIsNoRouteFound(packetDropped)
attr title "packet drop: no route found, count"
scalar baselineTestQoS.servercVIP.ipv4.ip packetDropNoRouteFound:sum(packetBytes) 0
attr interpolationmode none
attr recordingmode sum(packetBytes)
attr source packetDropReasonIsNoRouteFound(packetDropped)
attr title "packet drop: no route found, sum(packetBytes)"
scalar baselineTestQoS.servercVIP.ipv4.ip packetDropUndefined:count 0
attr interpolationmode none
attr recordingmode count
attr source packetDropReasonIsUndefined(packetDropped)
attr title "packet drop: undefined, count"
scalar baselineTestQoS.servercVIP.ipv4.ip packetDropUndefined:sum(packetBytes) 0
attr interpolationmode none
attr recordingmode sum(packetBytes)
attr source packetDropReasonIsUndefined(packetDropped)
attr title "packet drop: undefined, sum(packetBytes)"
par baselineTestQoS.servercVIP.ipv4.arp typename "\"inet.networklayer.arp.ipv4.Arp\""
par baselineTestQoS.servercVIP.ipv4.arp interfaceTableModule "\"baselineTestQoS.servercVIP.interfaceTable\""
par baselineTestQoS.servercVIP.ipv4.arp routingTableModule "\"baselineTestQoS.servercVIP.ipv4.routingTable\""
par baselineTestQoS.servercVIP.ipv4.arp retryTimeout 1s
attr unit s
par baselineTestQoS.servercVIP.ipv4.arp retryCount 3
par baselineTestQoS.servercVIP.ipv4.arp cacheTimeout 120s
attr unit s
par baselineTestQoS.servercVIP.ipv4.arp proxyArpInterfaces "\"\""
scalar baselineTestQoS.servercVIP.ipv4.arp arpResolutionFailed:count 0
attr recordingmode count
attr title "ARP failed resolutions, count"
scalar baselineTestQoS.servercVIP.ipv4.arp arpResolutionCompleted:count 0
attr recordingmode count
attr title "ARP completed resolutions, count"
scalar baselineTestQoS.servercVIP.ipv4.arp arpResolutionInitiated:count 0
attr recordingmode count
attr title "ARP initiated resolutions, count"
scalar baselineTestQoS.servercVIP.ipv4.arp arpReplySent:count 0
attr recordingmode count
attr source arpReplySent
attr title "ARP replies sent, count"
scalar baselineTestQoS.servercVIP.ipv4.arp arpReplySent:sum(packetBytes) 0
attr recordingmode sum(packetBytes)
attr source arpReplySent
attr title "ARP replies sent, sum(packetBytes)"
scalar baselineTestQoS.servercVIP.ipv4.arp arpRequestSent:count 0
attr recordingmode count
attr source arpRequestSent
attr title "ARP request sent, count"
scalar baselineTestQoS.servercVIP.ipv4.arp arpRequestSent:sum(packetBytes) 0
attr recordingmode sum(packetBytes)
attr source arpRequestSent
attr title "ARP request sent, sum(packetBytes)"
par baselineTestQoS.servercVIP.ipv4.lp typename "\"inet.common.MessageDispatcher\""
par baselineTestQoS.servercVIP.ipv4.lp displayStringTextFormat "\"processed %p pk (%l)\""
par baselineTestQoS.servercVIP.ipv4.lp forwardServiceRegistration true
par baselineTestQoS.servercVIP.ipv4.lp forwardProtocolRegistration true
par baselineTestQoS.servercVIP.ipv4 typename "\"inet.networklayer.ipv4.Ipv4NetworkLayer\""
par baselineTestQoS.servercVIP.ipv4 forwarding false
par baselineTestQoS.servercVIP.ipv4 multicastForwarding false
par baselineTestQoS.servercVIP.ipv4 interfaceTableModule "\"baselineTestQoS.servercVIP.interfaceTable\""
par baselineTestQoS.servercVIP.ipv4 displayStringTextFormat "\"%i\""
par baselineTestQoS.servercVIP.nl typename "\"inet.common.MessageDispatcher\""
par baselineTestQoS.servercVIP.nl displayStringTextFormat "\"processed %p pk (%l)\""
par baselineTestQoS.servercVIP.nl forwardServiceRegistration true
par baselineTestQoS.servercVIP.nl forwardProtocolRegistration true
par baselineTestQoS.servercVIP.udp.crcInsertion typename "\"inet.transportlayer.udp.UdpCrcInsertionHook\""
par baselineTestQoS.servercVIP.udp typename "\"inet.transportlayer.udp.Udp\""
par baselineTestQoS.servercVIP.udp interfaceTableModule "\"baselineTestQoS.servercVIP.interfaceTable\""
par baselineTestQoS.servercVIP.udp icmpModule "\"^.ipv4.icmp\""
par baselineTestQoS.servercVIP.udp icmpv6Module "\"^.ipv6.icmpv6\""
par baselineTestQoS.servercVIP.udp crcMode "\"computed\""
attr enum disabled,declared,computed
par baselineTestQoS.servercVIP.udp defaultMulticastLoop true
scalar baselineTestQoS.servercVIP.udp packetReceived:count 0
attr interpolationmode none
attr recordingmode count
attr source packetReceived
attr title "packets received, count"
scalar baselineTestQoS.servercVIP.udp packetReceived:sum(packetBytes) 0
attr interpolationmode none
attr recordingmode sum(packetBytes)
attr source packetReceived
attr title "packets received, sum(packetBytes)"
scalar baselineTestQoS.servercVIP.udp packetSent:count 0
attr interpolationmode none
attr recordingmode count
attr source packetSent
attr title "packets sent, count"
scalar baselineTestQoS.servercVIP.udp packetSent:sum(packetBytes) 0
attr interpolationmode none
attr recordingmode sum(packetBytes)
attr source packetSent
attr title "packets sent, sum(packetBytes)"
scalar baselineTestQoS.servercVIP.udp passedUpPk:count 0
attr interpolationmode none
attr recordingmode count
attr source packetSentToUpper
attr title "packets passed up, count"
scalar baselineTestQoS.servercVIP.udp droppedPkWrongPort:count 0
attr interpolationmode none
attr recordingmode count
attr source packetDropReasonIsNoPortFound(packetDropped)
attr title "packets dropped (wrong port), count"
scalar baselineTestQoS.servercVIP.udp droppedPkBadChecksum:count 0
attr interpolationmode none
attr recordingmode count
attr source packetDropReasonIsIncorrectlyReceived(packetDropped)
attr title "packets dropped (checksum error), count"
par baselineTestQoS.servercVIP.tcp.crcInsertion typename "\"inet.transportlayer.tcp_common.TcpCrcInsertionHook\""
par baselineTestQoS.servercVIP.tcp typename "\"inet.transportlayer.tcp.Tcp\""
par baselineTestQoS.servercVIP.tcp crcMode "\"computed\""
attr enum declared,computed
par baselineTestQoS.servercVIP.tcp advertisedWindow 65535
par baselineTestQoS.servercVIP.tcp delayedAcksEnabled false
par baselineTestQoS.servercVIP.tcp nagleEnabled true
par baselineTestQoS.servercVIP.tcp limitedTransmitEnabled false
par baselineTestQoS.servercVIP.tcp increasedIWEnabled false
par baselineTestQoS.servercVIP.tcp sackSupport false
par baselineTestQoS.servercVIP.tcp windowScalingSupport false
par baselineTestQoS.servercVIP.tcp windowScalingFactor -1
par baselineTestQoS.servercVIP.tcp timestampSupport false
par baselineTestQoS.servercVIP.tcp mss 1452
par baselineTestQoS.servercVIP.tcp msl 120s
attr unit s
par baselineTestQoS.servercVIP.tcp tcpAlgorithmClass "\"TcpReno\""
attr enum TcpVegas,TcpWestwood,TcpNewReno,TcpReno,TcpTahoe,TcpNoCongestionControl
par baselineTestQoS.servercVIP.tcp useDataNotification false
par baselineTestQoS.servercVIP.tcp dupthresh 3
par baselineTestQoS.servercVIP.tcp initialSsthresh 4294967295
par baselineTestQoS.servercVIP.tcp stopOperationExtraTime 0s
attr unit s
par baselineTestQoS.servercVIP.tcp stopOperationTimeout 2s
attr unit s
par baselineTestQoS.servercVIP.tcp ecnWillingness false
par baselineTestQoS.servercVIP.tcp dctcpGamma 0.0625
par baselineTestQoS.servercVIP.tn typename "\"inet.common.MessageDispatcher\""
par baselineTestQoS.servercVIP.tn displayStringTextFormat "\"processed %p pk (%l)\""
par baselineTestQoS.servercVIP.tn forwardServiceRegistration true
par baselineTestQoS.servercVIP.tn forwardProtocolRegistration true
par baselineTestQoS.servercVIP.at typename "\"inet.common.MessageDispatcher\""
par baselineTestQoS.servercVIP.at displayStringTextFormat "\"processed %p pk (%l)\""
par baselineTestQoS.servercVIP.at forwardServiceRegistration true
par baselineTestQoS.servercVIP.at forwardProtocolRegistration true
par baselineTestQoS.servercVIP typename "\"inet.node.inet.StandardHost\""
par baselineTestQoS.servercVIP hasStatus false
par baselineTestQoS.servercVIP osgModel "\"\""
par baselineTestQoS.servercVIP osgModelColor "\"\""
par baselineTestQoS.servercVIP canvasImage "\"\""
par baselineTestQoS.servercVIP canvasImageColor "\"\""
par baselineTestQoS.servercVIP recordPcap false
par baselineTestQoS.servercVIP numPcapRecorders 0
par baselineTestQoS.servercVIP numLoInterfaces 1
par baselineTestQoS.servercVIP numWlanInterfaces 0
par baselineTestQoS.servercVIP numEthInterfaces 0
par baselineTestQoS.servercVIP numPppInterfaces 0
par baselineTestQoS.servercVIP numTunInterfaces 0
par baselineTestQoS.servercVIP numVirtInterfaces 0
par baselineTestQoS.servercVIP fcsMode "\"declared\""
attr enum declared,computed
par baselineTestQoS.servercVIP hasIpv4 true
par baselineTestQoS.servercVIP hasIpv6 false
par baselineTestQoS.servercVIP hasGn false
par baselineTestQoS.servercVIP forwarding false
par baselineTestQoS.servercVIP multicastForwarding false
par baselineTestQoS.servercVIP hasUdp true
par baselineTestQoS.servercVIP hasTcp true
par baselineTestQoS.servercVIP hasSctp false
par baselineTestQoS.servercVIP numApps 0
par baselineTestQoS typename "\"improved5gns.simulations.baselineTestQoS\""
par baselineTestQoS nVID 1
par baselineTestQoS nLVD 1
par baselineTestQoS nFDO 1
par baselineTestQoS nSSH 1
par baselineTestQoS nVIP 1
par baselineTestQoS ncVIP 1

