file 26280116 1684841087                                        
version 3
run QoESli1_6SlicesHTB_R100_Q35_M100_C100-0-20230523-13:23:56-93985
attr configname QoESli1_6SlicesHTB_R100_Q35_M100_C100
attr datetime 20230523-13:23:56
attr datetimef 20230523-132356
attr experiment QoESli1_6SlicesHTB_R100_Q35_M100_C100
attr inifile simulations/QoEStudies.ini
attr iterationvars ""
attr iterationvarsd ""
attr iterationvarsf ""
attr measurement ""
attr network baselineTestQoS
attr processid 93985
attr repetition 0
attr replication #0
attr resultdir results
attr runnumber 0
attr seedset 0
config image-path ../inet/images
config description "Configuration for QoESli1_6SlicesHTB_R100_Q35_M100_C100. All five applications. QoS employed. Guarantee Multiplier: 1.0; Ceil multiplier: 1.0"
config extends liteCbaselineTestTokenQoS_base
config *.configurator.config "xmldoc(\"configs/routing/QoESli1_6SlicesHTB_R100_Q35_M100_C100Routing.xml\")"
config *.nVID 49
config *.nLVD 41
config *.nFDO 4
config *.nSSH 5
config *.nVIP 27
config *.ncVIP 2
config *.router*.ppp[0].queue.typename HtbQueue
config *.router*.ppp[0].queue.numQueues 128
config *.router*.ppp[0].queue.queue[*].typename DropTailQueue
config *.router*.ppp[0].queue.packetCapacity -1
config *.router*.ppp[0].queue.htbHysterisis false
config *.router*.ppp[0].queue.scheduler.adjustHTBTreeValuesForCorectness false
config *.router*.ppp[0].queue.scheduler.checkHTBTreeValuesForCorectness false
config *.router*.ppp[0].queue.htbTreeConfig "xmldoc(\"configs/htbTree/QoESli1_6SlicesHTB_R100_Q35_M100_C100HTB.xml\")"
config *.router*.ppp[0].queue.classifier.defaultGateIndex 0
config *.router0.ppp[0].queue.classifier.packetFilters "[expr(ipv4.srcAddress.str() =~ \"10.0.0.0\"),expr(ipv4.srcAddress.str() =~ \"10.0.0.4\"),expr(ipv4.srcAddress.str() =~ \"10.0.0.8\"),expr(ipv4.srcAddress.str() =~ \"10.0.0.12\"),expr(ipv4.srcAddress.str() =~ \"10.0.0.16\"),expr(ipv4.srcAddress.str() =~ \"10.0.0.20\"),expr(ipv4.srcAddress.str() =~ \"10.0.0.24\"),expr(ipv4.srcAddress.str() =~ \"10.0.0.28\"),expr(ipv4.srcAddress.str() =~ \"10.0.0.32\"),expr(ipv4.srcAddress.str() =~ \"10.0.0.36\"),expr(ipv4.srcAddress.str() =~ \"10.0.0.40\"),expr(ipv4.srcAddress.str() =~ \"10.0.0.44\"),expr(ipv4.srcAddress.str() =~ \"10.0.0.48\"),expr(ipv4.srcAddress.str() =~ \"10.0.0.52\"),expr(ipv4.srcAddress.str() =~ \"10.0.0.56\"),expr(ipv4.srcAddress.str() =~ \"10.0.0.60\"),expr(ipv4.srcAddress.str() =~ \"10.0.0.64\"),expr(ipv4.srcAddress.str() =~ \"10.0.0.68\"),expr(ipv4.srcAddress.str() =~ \"10.0.0.72\"),expr(ipv4.srcAddress.str() =~ \"10.0.0.76\"),expr(ipv4.srcAddress.str() =~ \"10.0.0.80\"),expr(ipv4.srcAddress.str() =~ \"10.0.0.84\"),expr(ipv4.srcAddress.str() =~ \"10.0.0.88\"),expr(ipv4.srcAddress.str() =~ \"10.0.0.92\"),expr(ipv4.srcAddress.str() =~ \"10.0.0.96\"),expr(ipv4.srcAddress.str() =~ \"10.0.0.100\"),expr(ipv4.srcAddress.str() =~ \"10.0.0.104\"),expr(ipv4.srcAddress.str() =~ \"10.0.0.108\"),expr(ipv4.srcAddress.str() =~ \"10.0.0.112\"),expr(ipv4.srcAddress.str() =~ \"10.0.0.116\"),expr(ipv4.srcAddress.str() =~ \"10.0.0.120\"),expr(ipv4.srcAddress.str() =~ \"10.0.0.124\"),expr(ipv4.srcAddress.str() =~ \"10.0.0.128\"),expr(ipv4.srcAddress.str() =~ \"10.0.0.132\"),expr(ipv4.srcAddress.str() =~ \"10.0.0.136\"),expr(ipv4.srcAddress.str() =~ \"10.0.0.140\"),expr(ipv4.srcAddress.str() =~ \"10.0.0.144\"),expr(ipv4.srcAddress.str() =~ \"10.0.0.148\"),expr(ipv4.srcAddress.str() =~ \"10.0.0.152\"),expr(ipv4.srcAddress.str() =~ \"10.0.0.156\"),expr(ipv4.srcAddress.str() =~ \"10.0.0.160\"),expr(ipv4.srcAddress.str() =~ \"10.0.0.164\"),expr(ipv4.srcAddress.str() =~ \"10.0.0.168\"),expr(ipv4.srcAddress.str() =~ \"10.0.0.172\"),expr(ipv4.srcAddress.str() =~ \"10.0.0.176\"),expr(ipv4.srcAddress.str() =~ \"10.0.0.180\"),expr(ipv4.srcAddress.str() =~ \"10.0.0.184\"),expr(ipv4.srcAddress.str() =~ \"10.0.0.188\"),expr(ipv4.srcAddress.str() =~ \"10.0.0.192\"),expr(ipv4.srcAddress.str() =~ \"10.1.0.0\"),expr(ipv4.srcAddress.str() =~ \"10.1.0.4\"),expr(ipv4.srcAddress.str() =~ \"10.1.0.8\"),expr(ipv4.srcAddress.str() =~ \"10.1.0.12\"),expr(ipv4.srcAddress.str() =~ \"10.1.0.16\"),expr(ipv4.srcAddress.str() =~ \"10.1.0.20\"),expr(ipv4.srcAddress.str() =~ \"10.1.0.24\"),expr(ipv4.srcAddress.str() =~ \"10.1.0.28\"),expr(ipv4.srcAddress.str() =~ \"10.1.0.32\"),expr(ipv4.srcAddress.str() =~ \"10.1.0.36\"),expr(ipv4.srcAddress.str() =~ \"10.1.0.40\"),expr(ipv4.srcAddress.str() =~ \"10.1.0.44\"),expr(ipv4.srcAddress.str() =~ \"10.1.0.48\"),expr(ipv4.srcAddress.str() =~ \"10.1.0.52\"),expr(ipv4.srcAddress.str() =~ \"10.1.0.56\"),expr(ipv4.srcAddress.str() =~ \"10.1.0.60\"),expr(ipv4.srcAddress.str() =~ \"10.1.0.64\"),expr(ipv4.srcAddress.str() =~ \"10.1.0.68\"),expr(ipv4.srcAddress.str() =~ \"10.1.0.72\"),expr(ipv4.srcAddress.str() =~ \"10.1.0.76\"),expr(ipv4.srcAddress.str() =~ \"10.1.0.80\"),expr(ipv4.srcAddress.str() =~ \"10.1.0.84\"),expr(ipv4.srcAddress.str() =~ \"10.1.0.88\"),expr(ipv4.srcAddress.str() =~ \"10.1.0.92\"),expr(ipv4.srcAddress.str() =~ \"10.1.0.96\"),expr(ipv4.srcAddress.str() =~ \"10.1.0.100\"),expr(ipv4.srcAddress.str() =~ \"10.1.0.104\"),expr(ipv4.srcAddress.str() =~ \"10.1.0.108\"),expr(ipv4.srcAddress.str() =~ \"10.1.0.112\"),expr(ipv4.srcAddress.str() =~ \"10.1.0.116\"),expr(ipv4.srcAddress.str() =~ \"10.1.0.120\"),expr(ipv4.srcAddress.str() =~ \"10.1.0.124\"),expr(ipv4.srcAddress.str() =~ \"10.1.0.128\"),expr(ipv4.srcAddress.str() =~ \"10.1.0.132\"),expr(ipv4.srcAddress.str() =~ \"10.1.0.136\"),expr(ipv4.srcAddress.str() =~ \"10.1.0.140\"),expr(ipv4.srcAddress.str() =~ \"10.1.0.144\"),expr(ipv4.srcAddress.str() =~ \"10.1.0.148\"),expr(ipv4.srcAddress.str() =~ \"10.1.0.152\"),expr(ipv4.srcAddress.str() =~ \"10.1.0.156\"),expr(ipv4.srcAddress.str() =~ \"10.1.0.160\"),expr(ipv4.srcAddress.str() =~ \"10.2.0.0\"),expr(ipv4.srcAddress.str() =~ \"10.2.0.4\"),expr(ipv4.srcAddress.str() =~ \"10.2.0.8\"),expr(ipv4.srcAddress.str() =~ \"10.2.0.12\"),expr(ipv4.srcAddress.str() =~ \"10.3.0.0\"),expr(ipv4.srcAddress.str() =~ \"10.3.0.4\"),expr(ipv4.srcAddress.str() =~ \"10.3.0.8\"),expr(ipv4.srcAddress.str() =~ \"10.3.0.12\"),expr(ipv4.srcAddress.str() =~ \"10.3.0.16\"),expr(ipv4.srcAddress.str() =~ \"10.3.0.20\"),expr(ipv4.srcAddress.str() =~ \"10.3.0.24\"),expr(ipv4.srcAddress.str() =~ \"10.3.0.28\"),expr(ipv4.srcAddress.str() =~ \"10.3.0.32\"),expr(ipv4.srcAddress.str() =~ \"10.3.0.36\"),expr(ipv4.srcAddress.str() =~ \"10.3.0.40\"),expr(ipv4.srcAddress.str() =~ \"10.3.0.44\"),expr(ipv4.srcAddress.str() =~ \"10.3.0.48\"),expr(ipv4.srcAddress.str() =~ \"10.3.0.52\"),expr(ipv4.srcAddress.str() =~ \"10.3.0.56\"),expr(ipv4.srcAddress.str() =~ \"10.3.0.60\"),expr(ipv4.srcAddress.str() =~ \"10.3.0.64\"),expr(ipv4.srcAddress.str() =~ \"10.3.0.68\"),expr(ipv4.srcAddress.str() =~ \"10.3.0.72\"),expr(ipv4.srcAddress.str() =~ \"10.3.0.76\"),expr(ipv4.srcAddress.str() =~ \"10.3.0.80\"),expr(ipv4.srcAddress.str() =~ \"10.3.0.84\"),expr(ipv4.srcAddress.str() =~ \"10.3.0.88\"),expr(ipv4.srcAddress.str() =~ \"10.3.0.92\"),expr(ipv4.srcAddress.str() =~ \"10.3.0.96\"),expr(ipv4.srcAddress.str() =~ \"10.3.0.100\"),expr(ipv4.srcAddress.str() =~ \"10.3.0.104\"),expr(ipv4.srcAddress.str() =~ \"10.4.0.0\"),expr(ipv4.srcAddress.str() =~ \"10.4.0.4\"),expr(ipv4.srcAddress.str() =~ \"10.4.0.8\"),expr(ipv4.srcAddress.str() =~ \"10.4.0.12\"),expr(ipv4.srcAddress.str() =~ \"10.4.0.16\"),expr(ipv4.srcAddress.str() =~ \"10.5.0.0\"),expr(ipv4.srcAddress.str() =~ \"10.5.0.4\")]"
config *.router1.ppp[0].queue.classifier.packetFilters "[expr(ipv4.destAddress.str() =~ \"10.0.0.0\"),expr(ipv4.destAddress.str() =~ \"10.0.0.4\"),expr(ipv4.destAddress.str() =~ \"10.0.0.8\"),expr(ipv4.destAddress.str() =~ \"10.0.0.12\"),expr(ipv4.destAddress.str() =~ \"10.0.0.16\"),expr(ipv4.destAddress.str() =~ \"10.0.0.20\"),expr(ipv4.destAddress.str() =~ \"10.0.0.24\"),expr(ipv4.destAddress.str() =~ \"10.0.0.28\"),expr(ipv4.destAddress.str() =~ \"10.0.0.32\"),expr(ipv4.destAddress.str() =~ \"10.0.0.36\"),expr(ipv4.destAddress.str() =~ \"10.0.0.40\"),expr(ipv4.destAddress.str() =~ \"10.0.0.44\"),expr(ipv4.destAddress.str() =~ \"10.0.0.48\"),expr(ipv4.destAddress.str() =~ \"10.0.0.52\"),expr(ipv4.destAddress.str() =~ \"10.0.0.56\"),expr(ipv4.destAddress.str() =~ \"10.0.0.60\"),expr(ipv4.destAddress.str() =~ \"10.0.0.64\"),expr(ipv4.destAddress.str() =~ \"10.0.0.68\"),expr(ipv4.destAddress.str() =~ \"10.0.0.72\"),expr(ipv4.destAddress.str() =~ \"10.0.0.76\"),expr(ipv4.destAddress.str() =~ \"10.0.0.80\"),expr(ipv4.destAddress.str() =~ \"10.0.0.84\"),expr(ipv4.destAddress.str() =~ \"10.0.0.88\"),expr(ipv4.destAddress.str() =~ \"10.0.0.92\"),expr(ipv4.destAddress.str() =~ \"10.0.0.96\"),expr(ipv4.destAddress.str() =~ \"10.0.0.100\"),expr(ipv4.destAddress.str() =~ \"10.0.0.104\"),expr(ipv4.destAddress.str() =~ \"10.0.0.108\"),expr(ipv4.destAddress.str() =~ \"10.0.0.112\"),expr(ipv4.destAddress.str() =~ \"10.0.0.116\"),expr(ipv4.destAddress.str() =~ \"10.0.0.120\"),expr(ipv4.destAddress.str() =~ \"10.0.0.124\"),expr(ipv4.destAddress.str() =~ \"10.0.0.128\"),expr(ipv4.destAddress.str() =~ \"10.0.0.132\"),expr(ipv4.destAddress.str() =~ \"10.0.0.136\"),expr(ipv4.destAddress.str() =~ \"10.0.0.140\"),expr(ipv4.destAddress.str() =~ \"10.0.0.144\"),expr(ipv4.destAddress.str() =~ \"10.0.0.148\"),expr(ipv4.destAddress.str() =~ \"10.0.0.152\"),expr(ipv4.destAddress.str() =~ \"10.0.0.156\"),expr(ipv4.destAddress.str() =~ \"10.0.0.160\"),expr(ipv4.destAddress.str() =~ \"10.0.0.164\"),expr(ipv4.destAddress.str() =~ \"10.0.0.168\"),expr(ipv4.destAddress.str() =~ \"10.0.0.172\"),expr(ipv4.destAddress.str() =~ \"10.0.0.176\"),expr(ipv4.destAddress.str() =~ \"10.0.0.180\"),expr(ipv4.destAddress.str() =~ \"10.0.0.184\"),expr(ipv4.destAddress.str() =~ \"10.0.0.188\"),expr(ipv4.destAddress.str() =~ \"10.0.0.192\"),expr(ipv4.destAddress.str() =~ \"10.1.0.0\"),expr(ipv4.destAddress.str() =~ \"10.1.0.4\"),expr(ipv4.destAddress.str() =~ \"10.1.0.8\"),expr(ipv4.destAddress.str() =~ \"10.1.0.12\"),expr(ipv4.destAddress.str() =~ \"10.1.0.16\"),expr(ipv4.destAddress.str() =~ \"10.1.0.20\"),expr(ipv4.destAddress.str() =~ \"10.1.0.24\"),expr(ipv4.destAddress.str() =~ \"10.1.0.28\"),expr(ipv4.destAddress.str() =~ \"10.1.0.32\"),expr(ipv4.destAddress.str() =~ \"10.1.0.36\"),expr(ipv4.destAddress.str() =~ \"10.1.0.40\"),expr(ipv4.destAddress.str() =~ \"10.1.0.44\"),expr(ipv4.destAddress.str() =~ \"10.1.0.48\"),expr(ipv4.destAddress.str() =~ \"10.1.0.52\"),expr(ipv4.destAddress.str() =~ \"10.1.0.56\"),expr(ipv4.destAddress.str() =~ \"10.1.0.60\"),expr(ipv4.destAddress.str() =~ \"10.1.0.64\"),expr(ipv4.destAddress.str() =~ \"10.1.0.68\"),expr(ipv4.destAddress.str() =~ \"10.1.0.72\"),expr(ipv4.destAddress.str() =~ \"10.1.0.76\"),expr(ipv4.destAddress.str() =~ \"10.1.0.80\"),expr(ipv4.destAddress.str() =~ \"10.1.0.84\"),expr(ipv4.destAddress.str() =~ \"10.1.0.88\"),expr(ipv4.destAddress.str() =~ \"10.1.0.92\"),expr(ipv4.destAddress.str() =~ \"10.1.0.96\"),expr(ipv4.destAddress.str() =~ \"10.1.0.100\"),expr(ipv4.destAddress.str() =~ \"10.1.0.104\"),expr(ipv4.destAddress.str() =~ \"10.1.0.108\"),expr(ipv4.destAddress.str() =~ \"10.1.0.112\"),expr(ipv4.destAddress.str() =~ \"10.1.0.116\"),expr(ipv4.destAddress.str() =~ \"10.1.0.120\"),expr(ipv4.destAddress.str() =~ \"10.1.0.124\"),expr(ipv4.destAddress.str() =~ \"10.1.0.128\"),expr(ipv4.destAddress.str() =~ \"10.1.0.132\"),expr(ipv4.destAddress.str() =~ \"10.1.0.136\"),expr(ipv4.destAddress.str() =~ \"10.1.0.140\"),expr(ipv4.destAddress.str() =~ \"10.1.0.144\"),expr(ipv4.destAddress.str() =~ \"10.1.0.148\"),expr(ipv4.destAddress.str() =~ \"10.1.0.152\"),expr(ipv4.destAddress.str() =~ \"10.1.0.156\"),expr(ipv4.destAddress.str() =~ \"10.1.0.160\"),expr(ipv4.destAddress.str() =~ \"10.2.0.0\"),expr(ipv4.destAddress.str() =~ \"10.2.0.4\"),expr(ipv4.destAddress.str() =~ \"10.2.0.8\"),expr(ipv4.destAddress.str() =~ \"10.2.0.12\"),expr(ipv4.destAddress.str() =~ \"10.3.0.0\"),expr(ipv4.destAddress.str() =~ \"10.3.0.4\"),expr(ipv4.destAddress.str() =~ \"10.3.0.8\"),expr(ipv4.destAddress.str() =~ \"10.3.0.12\"),expr(ipv4.destAddress.str() =~ \"10.3.0.16\"),expr(ipv4.destAddress.str() =~ \"10.3.0.20\"),expr(ipv4.destAddress.str() =~ \"10.3.0.24\"),expr(ipv4.destAddress.str() =~ \"10.3.0.28\"),expr(ipv4.destAddress.str() =~ \"10.3.0.32\"),expr(ipv4.destAddress.str() =~ \"10.3.0.36\"),expr(ipv4.destAddress.str() =~ \"10.3.0.40\"),expr(ipv4.destAddress.str() =~ \"10.3.0.44\"),expr(ipv4.destAddress.str() =~ \"10.3.0.48\"),expr(ipv4.destAddress.str() =~ \"10.3.0.52\"),expr(ipv4.destAddress.str() =~ \"10.3.0.56\"),expr(ipv4.destAddress.str() =~ \"10.3.0.60\"),expr(ipv4.destAddress.str() =~ \"10.3.0.64\"),expr(ipv4.destAddress.str() =~ \"10.3.0.68\"),expr(ipv4.destAddress.str() =~ \"10.3.0.72\"),expr(ipv4.destAddress.str() =~ \"10.3.0.76\"),expr(ipv4.destAddress.str() =~ \"10.3.0.80\"),expr(ipv4.destAddress.str() =~ \"10.3.0.84\"),expr(ipv4.destAddress.str() =~ \"10.3.0.88\"),expr(ipv4.destAddress.str() =~ \"10.3.0.92\"),expr(ipv4.destAddress.str() =~ \"10.3.0.96\"),expr(ipv4.destAddress.str() =~ \"10.3.0.100\"),expr(ipv4.destAddress.str() =~ \"10.3.0.104\"),expr(ipv4.destAddress.str() =~ \"10.4.0.0\"),expr(ipv4.destAddress.str() =~ \"10.4.0.4\"),expr(ipv4.destAddress.str() =~ \"10.4.0.8\"),expr(ipv4.destAddress.str() =~ \"10.4.0.12\"),expr(ipv4.destAddress.str() =~ \"10.4.0.16\"),expr(ipv4.destAddress.str() =~ \"10.5.0.0\"),expr(ipv4.destAddress.str() =~ \"10.5.0.4\")]"
config **.connFIX0.datarate 100000000bps
config **.connFIX0.delay 10ms
config description "All five applications - base configuration without any resource allocation"
config network baselineTestQoS
config sim-time-limit 400s
config output-vector-file results/QoESli1_6SlicesHTB_R100_Q35_M100_C100/QoESli1_6SlicesHTB_R100_Q35_M100_C100-0.vec
config output-scalar-file results/QoESli1_6SlicesHTB_R100_Q35_M100_C100/QoESli1_6SlicesHTB_R100_Q35_M100_C100-0.sca
config **.crcMode "\"computed\""
config *.host*.numApps 1
config *.hostFDO[*].hasTcp true
config *.hostFDO[*].app[0].typename TcpFileDownloadApp
config *.hostFDO[*].app[0].localAddress "\"\""
config *.hostFDO[*].app[0].localPort -1
config *.hostFDO[*].app[0].connectAddress "\"serverFDO\""
config *.hostFDO[*].app[0].connectPort 1042
config *.hostFDO[*].app[0].startTime uniform(0.01s,1s)
config *.hostFDO[*].app[0].stopTime -1s
config *.hostFDO[*].app[0].numRequestsPerSession 1
config *.hostFDO[*].app[0].requestLength 800B
config *.hostFDO[*].app[0].replyLength 10000KiB
config *.hostFDO[*].app[0].thinkTime 0.01s
config *.hostFDO[*].app[0].idleInterval 1s
config *.hostFDO[*].app[0].reconnectInterval 1s
config *.hostFDO[*].app[0].stopOperationExtraTime -1s
config *.hostFDO[*].app[0].stopOperationTimeout 2s
config *.serverFDO.hasTcp true
config *.serverFDO.numApps 1
config *.serverFDO.app[0].typename TcpGenericServerApp
config *.serverFDO.app[0].localAddress "\"\""
config *.serverFDO.app[0].localPort 1042
config *.serverFDO.app[0].replyDelay 0s
config *.serverFDO.app[0].stopOperationExtraTime -1s
config *.serverFDO.app[0].stopOperationTimeout 2s
config **.hostVID[*].hasTcp true
config **.hostVID[*].app[0].typename TCPVideoStreamCliAppV2lite
config **.hostVID[*].app[0].localAddress "\"\""
config **.hostVID[*].app[0].localPort -1
config **.hostVID[*].app[0].connectAddress "\"serverVID\""
config **.hostVID[*].app[0].connectPort 1042
config **.hostVID[*].app[0].dataTransferMode "\"object\""
config **.hostVID[*].app[0].startTime uniform(0.01s,1s)
config **.hostVID[*].app[0].stopTime -1s
config **.hostVID[*].app[0].idleInterval 1s
config **.hostVID[*].app[0].requestLength 200B
config **.hostVID[*].app[0].reconnectInterval 1s
config **.hostVID[*].app[0].numRequestsPerSession 1
config **.hostVID[*].app[0].thinkTime 1s
config **.hostVID[*].app[0].video_resolution "\"360 480 720 1080\""
config **.hostVID[*].app[0].manifest_size 100000
config **.hostVID[*].app[0].video_buffer_max_length 40s
config **.hostVID[*].app[0].video_duration int(uniform(240s,320s))
config **.hostVID[*].app[0].segment_length 5s
config **.hostVID[*].app[0].useFlexibleBitrate "\"flexible\""
config *.serverVID.hasTcp true
config *.serverVID.numApps 1
config *.serverVID.app[0].typename TcpGenericServerApp
config *.serverVID.app[0].localAddress "\"\""
config *.serverVID.app[0].localPort 1042
config *.serverVID.app[0].replyDelay 0s
config *.serverVID.app[0].stopOperationExtraTime -1s
config *.serverVID.app[0].stopOperationTimeout 2s
config **.hostLVD[*].hasTcp true
config **.hostLVD[*].app[0].typename TCPLiveVideoStreamCliAppLite
config **.hostLVD[*].app[0].localAddress "\"\""
config **.hostLVD[*].app[0].localPort -1
config **.hostLVD[*].app[0].connectAddress "\"serverLVD\""
config **.hostLVD[*].app[0].connectPort 1043
config **.hostLVD[*].app[0].dataTransferMode "\"object\""
config **.hostLVD[*].app[0].startTime uniform(0.01s,1s)
config **.hostLVD[*].app[0].stopTime -1s
config **.hostLVD[*].app[0].idleInterval 1s
config **.hostLVD[*].app[0].requestLength 200B
config **.hostLVD[*].app[0].reconnectInterval 1s
config **.hostLVD[*].app[0].numRequestsPerSession 1
config **.hostLVD[*].app[0].thinkTime 1s
config **.hostLVD[*].app[0].video_resolution "\"240 360 480 720 1080\""
config **.hostLVD[*].app[0].manifest_size 100000
config **.hostLVD[*].app[0].video_buffer_max_length 6s
config **.hostLVD[*].app[0].video_duration int(uniform(40s,70s))
config **.hostLVD[*].app[0].segment_length 1s
config **.hostLVD[*].app[0].useFlexibleBitrate "\"flexible\""
config **.hostLVD[*].app[0].video_type "\"live\""
config **.hostLVD[*].app[0].delay_threshold 4
config **.hostLVD[*].app[0].speedup_rate 1.05
config *.serverLVD.hasTcp true
config *.serverLVD.numApps 1
config *.serverLVD.app[0].typename TcpGenericServerApp
config *.serverLVD.app[0].localAddress "\"\""
config *.serverLVD.app[0].localPort 1043
config *.serverLVD.app[0].replyDelay 0s
config *.serverLVD.app[0].stopOperationExtraTime -1s
config *.serverLVD.app[0].stopOperationTimeout 2s
config **.hostSSH[*].hasTcp true
config **.hostSSH[*].app[0].typename TcpSimpleSshAppV2lite
config **.hostSSH[*].app[0].localAddress "\"\""
config **.hostSSH[*].app[0].localPort -1
config **.hostSSH[*].app[0].connectAddress "\"serverSSH\""
config **.hostSSH[*].app[0].connectPort 22
config **.hostSSH[*].app[0].startTime uniform(0.01s,1s)
config **.hostSSH[*].app[0].stopTime -1s
config **.hostSSH[*].app[0].numCommands 1
config **.hostSSH[*].app[0].commandLength 10B
config **.hostSSH[*].app[0].keyPressDelay 0.05s
config **.hostSSH[*].app[0].commandOutputLength 500B
config **.hostSSH[*].app[0].thinkTime 1s
config **.hostSSH[*].app[0].idleInterval 1s
config **.hostSSH[*].app[0].reconnectInterval 1s
config **.hostSSH[*].app[0].stopOperationExtraTime -1s
config **.hostSSH[*].app[0].stopOperationTimeout 2s
config *.serverSSH.hasTcp true
config *.serverSSH.numApps 1
config *.serverSSH.app[*].typename TcpGenericServerApp
config *.serverSSH.app[*].localAddress "\"\""
config *.serverSSH.app[*].localPort 22
config *.serverSSH.app[*].replyDelay 0s
config *.serverSSH.app[*].stopOperationExtraTime -1s
config *.serverSSH.app[*].stopOperationTimeout 2s
config **.hostVIP[*].hasUdp true
config **.hostVIP[*].app[0].typename SimpleVoipReceiver
config **.hostVIP[*].app[0].localPort 2000
config **.hostVIP[*].app[0].emodelIe 5
config **.hostVIP[*].app[0].emodelBpl 10
config **.hostVIP[*].app[0].emodelA 5
config **.hostVIP[*].app[0].emodelRo 93.2
config **.hostVIP[*].app[0].playoutDelay 20ms
config **.hostVIP[*].app[0].adaptivePlayoutDelay false
config **.hostVIP[*].app[0].bufferSpace 20
config **.hostVIP[*].app[0].mosSpareTime 1s
config **.serverVIP.hasUdp true
config **.serverVIP.numApps parent.nVIP
config **.serverVIP.app[*].typename SimpleVoipSender
config **.serverVIP.app[*].localPort -1
config **.serverVIP.app[*].destAddress "\"hostVIP[\" + string(index) + \"]\""
config **.serverVIP.app[*].destPort 2000
config **.serverVIP.app[*].talkPacketSize 40B
config **.serverVIP.app[*].talkspurtDuration "weibull(1.423s, 0.824s)"
config **.serverVIP.app[*].silenceDuration "weibull(0.899s, 1.089s)"
config **.serverVIP.app[*].packetizationInterval 20ms
config **.serverVIP.app[*].startTime uniform(0.01s,1s)
config **.serverVIP.app[*].stopTime -1s
config **.hostcVIP[*].hasUdp true
config **.hostcVIP[*].app[0].typename improved5gns.apps.SimpleVoipReceiverCustom
config **.hostcVIP[*].app[0].localPort 2000
config **.hostcVIP[*].app[0].emodelIe 5
config **.hostcVIP[*].app[0].emodelBpl 10
config **.hostcVIP[*].app[0].emodelA 5
config **.hostcVIP[*].app[0].emodelRo 93.2
config **.hostcVIP[*].app[0].playoutDelay 20ms
config **.hostcVIP[*].app[0].adaptivePlayoutDelay false
config **.hostcVIP[*].app[0].bufferSpace 20
config **.hostcVIP[*].app[0].mosSpareTime 1s
config **.servercVIP.hasUdp true
config **.servercVIP.numApps parent.ncVIP
config **.servercVIP.app[*].typename improved5gns.apps.SimpleVoipSenderCustom
config **.servercVIP.app[*].localPort -1
config **.servercVIP.app[*].destPort 2000
config **.servercVIP.app[*].destAddress "\"hostcVIP[\" + string(index) + \"]\""
config **.servercVIP.app[*].talkPacketSize 40B
config **.servercVIP.app[*].talkspurtDuration "weibull(1.423s, 0.824s)"
config **.servercVIP.app[*].silenceDuration "weibull(0.899s, 1.089s)"
config **.servercVIP.app[*].packetizationInterval 2ms
config **.servercVIP.app[*].startTime uniform(0.01s,1s)
config **.servercVIP.app[*].stopTime -1s
config sim-time-limit 250s
config num-rngs 1
config seed-0-mt 5
config output-scalar-file-append false
config record-eventlog false
config *.visualizer.*.interfaceTableVisualizer.displayInterfaceTables true
config **.tcp.typename Tcp
config **.udp.typename Udp
config **.packetCapacity 500
config **.tcp.advertisedWindow 65535
config **.tcp.delayedAcksEnabled false
config **.tcp.nagleEnabled true
config **.tcp.limitedTransmitEnabled false
config **.tcp.increasedIWEnabled false
config **.tcp.sackSupport false
config **.tcp.windowScalingSupport false
config **.tcp.timestampSupport false
config **.tcp.mss 1452
config **.tcp.tcpAlgorithmClass "\"TcpReno\""
config **.tcp.*.*.vector-recording true
config **.tcp.*.rtt.result-recording-modes +vector
config **.tcp.*.*.result-recording-modes -vector
config **.host*.app*.*.vector-recording true
config **.ppp.*xPk*.vector-recording true
config **.vector-recording false

vector 0 baselineTestQoS.hostVID[0].app[0] numActiveSessions:vector ETV
attr interpolationmode sample-hold
attr recordingmode vector
attr source sum(connect)
attr title "number of active sessions"
vector 1 baselineTestQoS.hostVID[1].app[0] numActiveSessions:vector ETV
attr interpolationmode sample-hold
attr recordingmode vector
attr source sum(connect)
attr title "number of active sessions"
vector 2 baselineTestQoS.hostVID[2].app[0] numActiveSessions:vector ETV
attr interpolationmode sample-hold
attr recordingmode vector
attr source sum(connect)
attr title "number of active sessions"
vector 3 baselineTestQoS.hostVID[3].app[0] numActiveSessions:vector ETV
attr interpolationmode sample-hold
attr recordingmode vector
attr source sum(connect)
attr title "number of active sessions"
vector 4 baselineTestQoS.hostVID[4].app[0] numActiveSessions:vector ETV
attr interpolationmode sample-hold
attr recordingmode vector
attr source sum(connect)
attr title "number of active sessions"
vector 5 baselineTestQoS.hostVID[5].app[0] numActiveSessions:vector ETV
attr interpolationmode sample-hold
attr recordingmode vector
attr source sum(connect)
attr title "number of active sessions"
vector 6 baselineTestQoS.hostVID[6].app[0] numActiveSessions:vector ETV
attr interpolationmode sample-hold
attr recordingmode vector
attr source sum(connect)
attr title "number of active sessions"
vector 7 baselineTestQoS.hostVID[7].app[0] numActiveSessions:vector ETV
attr interpolationmode sample-hold
attr recordingmode vector
attr source sum(connect)
attr title "number of active sessions"
vector 8 baselineTestQoS.hostVID[8].app[0] numActiveSessions:vector ETV
attr interpolationmode sample-hold
attr recordingmode vector
attr source sum(connect)
attr title "number of active sessions"
vector 9 baselineTestQoS.hostVID[9].app[0] numActiveSessions:vector ETV
attr interpolationmode sample-hold
attr recordingmode vector
attr source sum(connect)
attr title "number of active sessions"
vector 10 baselineTestQoS.hostVID[10].app[0] numActiveSessions:vector ETV
attr interpolationmode sample-hold
attr recordingmode vector
attr source sum(connect)
attr title "number of active sessions"
vector 11 baselineTestQoS.hostVID[11].app[0] numActiveSessions:vector ETV
attr interpolationmode sample-hold
attr recordingmode vector
attr source sum(connect)
attr title "number of active sessions"
vector 12 baselineTestQoS.hostVID[12].app[0] numActiveSessions:vector ETV
attr interpolationmode sample-hold
attr recordingmode vector
attr source sum(connect)
attr title "number of active sessions"
vector 13 baselineTestQoS.hostVID[13].app[0] numActiveSessions:vector ETV
attr interpolationmode sample-hold
attr recordingmode vector
attr source sum(connect)
attr title "number of active sessions"
vector 14 baselineTestQoS.hostVID[14].app[0] numActiveSessions:vector ETV
attr interpolationmode sample-hold
attr recordingmode vector
attr source sum(connect)
attr title "number of active sessions"
vector 15 baselineTestQoS.hostVID[15].app[0] numActiveSessions:vector ETV
attr interpolationmode sample-hold
attr recordingmode vector
attr source sum(connect)
attr title "number of active sessions"
vector 16 baselineTestQoS.hostVID[16].app[0] numActiveSessions:vector ETV
attr interpolationmode sample-hold
attr recordingmode vector
attr source sum(connect)
attr title "number of active sessions"
vector 17 baselineTestQoS.hostVID[17].app[0] numActiveSessions:vector ETV
attr interpolationmode sample-hold
attr recordingmode vector
attr source sum(connect)
attr title "number of active sessions"
vector 18 baselineTestQoS.hostVID[18].app[0] numActiveSessions:vector ETV
attr interpolationmode sample-hold
attr recordingmode vector
attr source sum(connect)
attr title "number of active sessions"
vector 19 baselineTestQoS.hostVID[19].app[0] numActiveSessions:vector ETV
attr interpolationmode sample-hold
attr recordingmode vector
attr source sum(connect)
attr title "number of active sessions"
vector 20 baselineTestQoS.hostVID[20].app[0] numActiveSessions:vector ETV
attr interpolationmode sample-hold
attr recordingmode vector
attr source sum(connect)
attr title "number of active sessions"
vector 21 baselineTestQoS.hostVID[21].app[0] numActiveSessions:vector ETV
attr interpolationmode sample-hold
attr recordingmode vector
attr source sum(connect)
attr title "number of active sessions"
vector 22 baselineTestQoS.hostVID[22].app[0] numActiveSessions:vector ETV
attr interpolationmode sample-hold
attr recordingmode vector
attr source sum(connect)
attr title "number of active sessions"
vector 23 baselineTestQoS.hostVID[23].app[0] numActiveSessions:vector ETV
attr interpolationmode sample-hold
attr recordingmode vector
attr source sum(connect)
attr title "number of active sessions"
vector 24 baselineTestQoS.hostVID[24].app[0] numActiveSessions:vector ETV
attr interpolationmode sample-hold
attr recordingmode vector
attr source sum(connect)
attr title "number of active sessions"
vector 25 baselineTestQoS.hostVID[25].app[0] numActiveSessions:vector ETV
attr interpolationmode sample-hold
attr recordingmode vector
attr source sum(connect)
attr title "number of active sessions"
vector 26 baselineTestQoS.hostVID[26].app[0] numActiveSessions:vector ETV
attr interpolationmode sample-hold
attr recordingmode vector
attr source sum(connect)
attr title "number of active sessions"
vector 27 baselineTestQoS.hostVID[27].app[0] numActiveSessions:vector ETV
attr interpolationmode sample-hold
attr recordingmode vector
attr source sum(connect)
attr title "number of active sessions"
vector 28 baselineTestQoS.hostVID[28].app[0] numActiveSessions:vector ETV
attr interpolationmode sample-hold
attr recordingmode vector
attr source sum(connect)
attr title "number of active sessions"
vector 29 baselineTestQoS.hostVID[29].app[0] numActiveSessions:vector ETV
attr interpolationmode sample-hold
attr recordingmode vector
attr source sum(connect)
attr title "number of active sessions"
vector 30 baselineTestQoS.hostVID[30].app[0] numActiveSessions:vector ETV
attr interpolationmode sample-hold
attr recordingmode vector
attr source sum(connect)
attr title "number of active sessions"
vector 31 baselineTestQoS.hostVID[31].app[0] numActiveSessions:vector ETV
attr interpolationmode sample-hold
attr recordingmode vector
attr source sum(connect)
attr title "number of active sessions"
vector 32 baselineTestQoS.hostVID[32].app[0] numActiveSessions:vector ETV
attr interpolationmode sample-hold
attr recordingmode vector
attr source sum(connect)
attr title "number of active sessions"
vector 33 baselineTestQoS.hostVID[33].app[0] numActiveSessions:vector ETV
attr interpolationmode sample-hold
attr recordingmode vector
attr source sum(connect)
attr title "number of active sessions"
vector 34 baselineTestQoS.hostVID[34].app[0] numActiveSessions:vector ETV
attr interpolationmode sample-hold
attr recordingmode vector
attr source sum(connect)
attr title "number of active sessions"
vector 35 baselineTestQoS.hostVID[35].app[0] numActiveSessions:vector ETV
attr interpolationmode sample-hold
attr recordingmode vector
attr source sum(connect)
attr title "number of active sessions"
vector 36 baselineTestQoS.hostVID[36].app[0] numActiveSessions:vector ETV
attr interpolationmode sample-hold
attr recordingmode vector
attr source sum(connect)
attr title "number of active sessions"
vector 37 baselineTestQoS.hostVID[37].app[0] numActiveSessions:vector ETV
attr interpolationmode sample-hold
attr recordingmode vector
attr source sum(connect)
attr title "number of active sessions"
vector 38 baselineTestQoS.hostVID[38].app[0] numActiveSessions:vector ETV
attr interpolationmode sample-hold
attr recordingmode vector
attr source sum(connect)
attr title "number of active sessions"
vector 39 baselineTestQoS.hostVID[39].app[0] numActiveSessions:vector ETV
attr interpolationmode sample-hold
attr recordingmode vector
attr source sum(connect)
attr title "number of active sessions"
vector 40 baselineTestQoS.hostVID[40].app[0] numActiveSessions:vector ETV
attr interpolationmode sample-hold
attr recordingmode vector
attr source sum(connect)
attr title "number of active sessions"
vector 41 baselineTestQoS.hostVID[41].app[0] numActiveSessions:vector ETV
attr interpolationmode sample-hold
attr recordingmode vector
attr source sum(connect)
attr title "number of active sessions"
vector 42 baselineTestQoS.hostVID[42].app[0] numActiveSessions:vector ETV
attr interpolationmode sample-hold
attr recordingmode vector
attr source sum(connect)
attr title "number of active sessions"
vector 43 baselineTestQoS.hostVID[43].app[0] numActiveSessions:vector ETV
attr interpolationmode sample-hold
attr recordingmode vector
attr source sum(connect)
attr title "number of active sessions"
vector 44 baselineTestQoS.hostVID[44].app[0] numActiveSessions:vector ETV
attr interpolationmode sample-hold
attr recordingmode vector
attr source sum(connect)
attr title "number of active sessions"
vector 45 baselineTestQoS.hostVID[45].app[0] numActiveSessions:vector ETV
attr interpolationmode sample-hold
attr recordingmode vector
attr source sum(connect)
attr title "number of active sessions"
vector 46 baselineTestQoS.hostVID[46].app[0] numActiveSessions:vector ETV
attr interpolationmode sample-hold
attr recordingmode vector
attr source sum(connect)
attr title "number of active sessions"
vector 47 baselineTestQoS.hostVID[47].app[0] numActiveSessions:vector ETV
attr interpolationmode sample-hold
attr recordingmode vector
attr source sum(connect)
attr title "number of active sessions"
vector 48 baselineTestQoS.hostVID[48].app[0] numActiveSessions:vector ETV
attr interpolationmode sample-hold
attr recordingmode vector
attr source sum(connect)
attr title "number of active sessions"
vector 49 baselineTestQoS.hostLVD[0].app[0] numActiveSessions:vector ETV
attr interpolationmode sample-hold
attr recordingmode vector
attr source sum(connect)
attr title "number of active sessions"
vector 50 baselineTestQoS.hostLVD[1].app[0] numActiveSessions:vector ETV
attr interpolationmode sample-hold
attr recordingmode vector
attr source sum(connect)
attr title "number of active sessions"
vector 51 baselineTestQoS.hostLVD[2].app[0] numActiveSessions:vector ETV
attr interpolationmode sample-hold
attr recordingmode vector
attr source sum(connect)
attr title "number of active sessions"
vector 52 baselineTestQoS.hostLVD[3].app[0] numActiveSessions:vector ETV
attr interpolationmode sample-hold
attr recordingmode vector
attr source sum(connect)
attr title "number of active sessions"
vector 53 baselineTestQoS.hostLVD[4].app[0] numActiveSessions:vector ETV
attr interpolationmode sample-hold
attr recordingmode vector
attr source sum(connect)
attr title "number of active sessions"
vector 54 baselineTestQoS.hostLVD[5].app[0] numActiveSessions:vector ETV
attr interpolationmode sample-hold
attr recordingmode vector
attr source sum(connect)
attr title "number of active sessions"
vector 55 baselineTestQoS.hostLVD[6].app[0] numActiveSessions:vector ETV
attr interpolationmode sample-hold
attr recordingmode vector
attr source sum(connect)
attr title "number of active sessions"
vector 56 baselineTestQoS.hostLVD[7].app[0] numActiveSessions:vector ETV
attr interpolationmode sample-hold
attr recordingmode vector
attr source sum(connect)
attr title "number of active sessions"
vector 57 baselineTestQoS.hostLVD[8].app[0] numActiveSessions:vector ETV
attr interpolationmode sample-hold
attr recordingmode vector
attr source sum(connect)
attr title "number of active sessions"
vector 58 baselineTestQoS.hostLVD[9].app[0] numActiveSessions:vector ETV
attr interpolationmode sample-hold
attr recordingmode vector
attr source sum(connect)
attr title "number of active sessions"
vector 59 baselineTestQoS.hostLVD[10].app[0] numActiveSessions:vector ETV
attr interpolationmode sample-hold
attr recordingmode vector
attr source sum(connect)
attr title "number of active sessions"
vector 60 baselineTestQoS.hostLVD[11].app[0] numActiveSessions:vector ETV
attr interpolationmode sample-hold
attr recordingmode vector
attr source sum(connect)
attr title "number of active sessions"
vector 61 baselineTestQoS.hostLVD[12].app[0] numActiveSessions:vector ETV
attr interpolationmode sample-hold
attr recordingmode vector
attr source sum(connect)
attr title "number of active sessions"
vector 62 baselineTestQoS.hostLVD[13].app[0] numActiveSessions:vector ETV
attr interpolationmode sample-hold
attr recordingmode vector
attr source sum(connect)
attr title "number of active sessions"
vector 63 baselineTestQoS.hostLVD[14].app[0] numActiveSessions:vector ETV
attr interpolationmode sample-hold
attr recordingmode vector
attr source sum(connect)
attr title "number of active sessions"
vector 64 baselineTestQoS.hostLVD[15].app[0] numActiveSessions:vector ETV
attr interpolationmode sample-hold
attr recordingmode vector
attr source sum(connect)
attr title "number of active sessions"
vector 65 baselineTestQoS.hostLVD[16].app[0] numActiveSessions:vector ETV
attr interpolationmode sample-hold
attr recordingmode vector
attr source sum(connect)
attr title "number of active sessions"
vector 66 baselineTestQoS.hostLVD[17].app[0] numActiveSessions:vector ETV
attr interpolationmode sample-hold
attr recordingmode vector
attr source sum(connect)
attr title "number of active sessions"
vector 67 baselineTestQoS.hostLVD[18].app[0] numActiveSessions:vector ETV
attr interpolationmode sample-hold
attr recordingmode vector
attr source sum(connect)
attr title "number of active sessions"
vector 68 baselineTestQoS.hostLVD[19].app[0] numActiveSessions:vector ETV
attr interpolationmode sample-hold
attr recordingmode vector
attr source sum(connect)
attr title "number of active sessions"
vector 69 baselineTestQoS.hostLVD[20].app[0] numActiveSessions:vector ETV
attr interpolationmode sample-hold
attr recordingmode vector
attr source sum(connect)
attr title "number of active sessions"
vector 70 baselineTestQoS.hostLVD[21].app[0] numActiveSessions:vector ETV
attr interpolationmode sample-hold
attr recordingmode vector
attr source sum(connect)
attr title "number of active sessions"
vector 71 baselineTestQoS.hostLVD[22].app[0] numActiveSessions:vector ETV
attr interpolationmode sample-hold
attr recordingmode vector
attr source sum(connect)
attr title "number of active sessions"
vector 72 baselineTestQoS.hostLVD[23].app[0] numActiveSessions:vector ETV
attr interpolationmode sample-hold
attr recordingmode vector
attr source sum(connect)
attr title "number of active sessions"
vector 73 baselineTestQoS.hostLVD[24].app[0] numActiveSessions:vector ETV
attr interpolationmode sample-hold
attr recordingmode vector
attr source sum(connect)
attr title "number of active sessions"
vector 74 baselineTestQoS.hostLVD[25].app[0] numActiveSessions:vector ETV
attr interpolationmode sample-hold
attr recordingmode vector
attr source sum(connect)
attr title "number of active sessions"
vector 75 baselineTestQoS.hostLVD[26].app[0] numActiveSessions:vector ETV
attr interpolationmode sample-hold
attr recordingmode vector
attr source sum(connect)
attr title "number of active sessions"
vector 76 baselineTestQoS.hostLVD[27].app[0] numActiveSessions:vector ETV
attr interpolationmode sample-hold
attr recordingmode vector
attr source sum(connect)
attr title "number of active sessions"
vector 77 baselineTestQoS.hostLVD[28].app[0] numActiveSessions:vector ETV
attr interpolationmode sample-hold
attr recordingmode vector
attr source sum(connect)
attr title "number of active sessions"
vector 78 baselineTestQoS.hostLVD[29].app[0] numActiveSessions:vector ETV
attr interpolationmode sample-hold
attr recordingmode vector
attr source sum(connect)
attr title "number of active sessions"
vector 79 baselineTestQoS.hostLVD[30].app[0] numActiveSessions:vector ETV
attr interpolationmode sample-hold
attr recordingmode vector
attr source sum(connect)
attr title "number of active sessions"
vector 80 baselineTestQoS.hostLVD[31].app[0] numActiveSessions:vector ETV
attr interpolationmode sample-hold
attr recordingmode vector
attr source sum(connect)
attr title "number of active sessions"
vector 81 baselineTestQoS.hostLVD[32].app[0] numActiveSessions:vector ETV
attr interpolationmode sample-hold
attr recordingmode vector
attr source sum(connect)
attr title "number of active sessions"
vector 82 baselineTestQoS.hostLVD[33].app[0] numActiveSessions:vector ETV
attr interpolationmode sample-hold
attr recordingmode vector
attr source sum(connect)
attr title "number of active sessions"
vector 83 baselineTestQoS.hostLVD[34].app[0] numActiveSessions:vector ETV
attr interpolationmode sample-hold
attr recordingmode vector
attr source sum(connect)
attr title "number of active sessions"
vector 84 baselineTestQoS.hostLVD[35].app[0] numActiveSessions:vector ETV
attr interpolationmode sample-hold
attr recordingmode vector
attr source sum(connect)
attr title "number of active sessions"
vector 85 baselineTestQoS.hostLVD[36].app[0] numActiveSessions:vector ETV
attr interpolationmode sample-hold
attr recordingmode vector
attr source sum(connect)
attr title "number of active sessions"
vector 86 baselineTestQoS.hostLVD[37].app[0] numActiveSessions:vector ETV
attr interpolationmode sample-hold
attr recordingmode vector
attr source sum(connect)
attr title "number of active sessions"
vector 87 baselineTestQoS.hostLVD[38].app[0] numActiveSessions:vector ETV
attr interpolationmode sample-hold
attr recordingmode vector
attr source sum(connect)
attr title "number of active sessions"
vector 88 baselineTestQoS.hostLVD[39].app[0] numActiveSessions:vector ETV
attr interpolationmode sample-hold
attr recordingmode vector
attr source sum(connect)
attr title "number of active sessions"
vector 89 baselineTestQoS.hostLVD[40].app[0] numActiveSessions:vector ETV
attr interpolationmode sample-hold
attr recordingmode vector
attr source sum(connect)
attr title "number of active sessions"
vector 90 baselineTestQoS.hostFDO[0].app[0] numActiveSessions:vector ETV
attr interpolationmode sample-hold
attr recordingmode vector
attr source sum(connect)
attr title "number of active sessions"
vector 91 baselineTestQoS.hostFDO[1].app[0] numActiveSessions:vector ETV
attr interpolationmode sample-hold
attr recordingmode vector
attr source sum(connect)
attr title "number of active sessions"
vector 92 baselineTestQoS.hostFDO[2].app[0] numActiveSessions:vector ETV
attr interpolationmode sample-hold
attr recordingmode vector
attr source sum(connect)
attr title "number of active sessions"
vector 93 baselineTestQoS.hostFDO[3].app[0] numActiveSessions:vector ETV
attr interpolationmode sample-hold
attr recordingmode vector
attr source sum(connect)
attr title "number of active sessions"
vector 94 baselineTestQoS.hostSSH[0].app[0] numActiveSessions:vector ETV
attr "" ""
attr interpolationmode sample-hold
attr recordingmode vector
attr source sum(connect)
attr title "number of active sessions"
vector 95 baselineTestQoS.hostSSH[1].app[0] numActiveSessions:vector ETV
attr "" ""
attr interpolationmode sample-hold
attr recordingmode vector
attr source sum(connect)
attr title "number of active sessions"
vector 96 baselineTestQoS.hostSSH[2].app[0] numActiveSessions:vector ETV
attr "" ""
attr interpolationmode sample-hold
attr recordingmode vector
attr source sum(connect)
attr title "number of active sessions"
vector 97 baselineTestQoS.hostSSH[3].app[0] numActiveSessions:vector ETV
attr "" ""
attr interpolationmode sample-hold
attr recordingmode vector
attr source sum(connect)
attr title "number of active sessions"
vector 98 baselineTestQoS.hostSSH[4].app[0] numActiveSessions:vector ETV
attr "" ""
attr interpolationmode sample-hold
attr recordingmode vector
attr source sum(connect)
attr title "number of active sessions"
vector 99 baselineTestQoS.hostVID[0].app[0] BOLAQualityLevel:vector ETV
attr recordingmode vector
attr title "Requested BOLA quality level (resolution)"
vector 100 baselineTestQoS.hostVID[0].app[0] BOLAUtility:vector ETV
attr recordingmode vector
attr title "Requested BOLA utility"
vector 101 baselineTestQoS.hostVID[0].app[0] BOLAQDMAX:vector ETV
attr recordingmode vector
attr title "Current BOLA Q_D_Max"
vector 102 baselineTestQoS.hostVID[0].app[0] BOLAVD:vector ETV
attr recordingmode vector
attr title "Current BOLA V_D"
vector 103 baselineTestQoS.hostVID[0].app[0] DASHBufferLength:vector ETV
attr recordingmode vector
attr title "Video buffer length (in seconds)"
vector 104 baselineTestQoS.hostVID[0].app[0] DASHVideoPlaybackPointer:vector ETV
attr recordingmode vector
attr title "Video playback pointer"
vector 105 baselineTestQoS.hostVID[0].app[0] DASHVideoBitrate:vector ETV
attr recordingmode vector
attr title "Requested video bitrate"
vector 106 baselineTestQoS.hostVID[0].app[0] DASHVideoResolution:vector ETV
attr recordingmode vector
attr title "Requested video resolution"
vector 107 baselineTestQoS.hostVID[1].app[0] BOLAQualityLevel:vector ETV
attr recordingmode vector
attr title "Requested BOLA quality level (resolution)"
vector 108 baselineTestQoS.hostVID[1].app[0] BOLAUtility:vector ETV
attr recordingmode vector
attr title "Requested BOLA utility"
vector 109 baselineTestQoS.hostVID[1].app[0] BOLAQDMAX:vector ETV
attr recordingmode vector
attr title "Current BOLA Q_D_Max"
vector 110 baselineTestQoS.hostVID[1].app[0] BOLAVD:vector ETV
attr recordingmode vector
attr title "Current BOLA V_D"
vector 111 baselineTestQoS.hostVID[1].app[0] DASHBufferLength:vector ETV
attr recordingmode vector
attr title "Video buffer length (in seconds)"
vector 112 baselineTestQoS.hostVID[1].app[0] DASHVideoPlaybackPointer:vector ETV
attr recordingmode vector
attr title "Video playback pointer"
vector 113 baselineTestQoS.hostVID[1].app[0] DASHVideoBitrate:vector ETV
attr recordingmode vector
attr title "Requested video bitrate"
vector 114 baselineTestQoS.hostVID[1].app[0] DASHVideoResolution:vector ETV
attr recordingmode vector
attr title "Requested video resolution"
vector 115 baselineTestQoS.hostVID[2].app[0] BOLAQualityLevel:vector ETV
attr recordingmode vector
attr title "Requested BOLA quality level (resolution)"
vector 116 baselineTestQoS.hostVID[2].app[0] BOLAUtility:vector ETV
attr recordingmode vector
attr title "Requested BOLA utility"
vector 117 baselineTestQoS.hostVID[2].app[0] BOLAQDMAX:vector ETV
attr recordingmode vector
attr title "Current BOLA Q_D_Max"
vector 118 baselineTestQoS.hostVID[2].app[0] BOLAVD:vector ETV
attr recordingmode vector
attr title "Current BOLA V_D"
vector 119 baselineTestQoS.hostVID[2].app[0] DASHBufferLength:vector ETV
attr recordingmode vector
attr title "Video buffer length (in seconds)"
vector 120 baselineTestQoS.hostVID[2].app[0] DASHVideoPlaybackPointer:vector ETV
attr recordingmode vector
attr title "Video playback pointer"
vector 121 baselineTestQoS.hostVID[2].app[0] DASHVideoBitrate:vector ETV
attr recordingmode vector
attr title "Requested video bitrate"
vector 122 baselineTestQoS.hostVID[2].app[0] DASHVideoResolution:vector ETV
attr recordingmode vector
attr title "Requested video resolution"
vector 123 baselineTestQoS.hostVID[3].app[0] BOLAQualityLevel:vector ETV
attr recordingmode vector
attr title "Requested BOLA quality level (resolution)"
vector 124 baselineTestQoS.hostVID[3].app[0] BOLAUtility:vector ETV
attr recordingmode vector
attr title "Requested BOLA utility"
vector 125 baselineTestQoS.hostVID[3].app[0] BOLAQDMAX:vector ETV
attr recordingmode vector
attr title "Current BOLA Q_D_Max"
vector 126 baselineTestQoS.hostVID[3].app[0] BOLAVD:vector ETV
attr recordingmode vector
attr title "Current BOLA V_D"
vector 127 baselineTestQoS.hostVID[3].app[0] DASHBufferLength:vector ETV
attr recordingmode vector
attr title "Video buffer length (in seconds)"
vector 128 baselineTestQoS.hostVID[3].app[0] DASHVideoPlaybackPointer:vector ETV
attr recordingmode vector
attr title "Video playback pointer"
vector 129 baselineTestQoS.hostVID[3].app[0] DASHVideoBitrate:vector ETV
attr recordingmode vector
attr title "Requested video bitrate"
vector 130 baselineTestQoS.hostVID[3].app[0] DASHVideoResolution:vector ETV
attr recordingmode vector
attr title "Requested video resolution"
vector 131 baselineTestQoS.hostVID[4].app[0] BOLAQualityLevel:vector ETV
attr recordingmode vector
attr title "Requested BOLA quality level (resolution)"
vector 132 baselineTestQoS.hostVID[4].app[0] BOLAUtility:vector ETV
attr recordingmode vector
attr title "Requested BOLA utility"
vector 133 baselineTestQoS.hostVID[4].app[0] BOLAQDMAX:vector ETV
attr recordingmode vector
attr title "Current BOLA Q_D_Max"
vector 134 baselineTestQoS.hostVID[4].app[0] BOLAVD:vector ETV
attr recordingmode vector
attr title "Current BOLA V_D"
vector 135 baselineTestQoS.hostVID[4].app[0] DASHBufferLength:vector ETV
attr recordingmode vector
attr title "Video buffer length (in seconds)"
vector 136 baselineTestQoS.hostVID[4].app[0] DASHVideoPlaybackPointer:vector ETV
attr recordingmode vector
attr title "Video playback pointer"
vector 137 baselineTestQoS.hostVID[4].app[0] DASHVideoBitrate:vector ETV
attr recordingmode vector
attr title "Requested video bitrate"
vector 138 baselineTestQoS.hostVID[4].app[0] DASHVideoResolution:vector ETV
attr recordingmode vector
attr title "Requested video resolution"
vector 139 baselineTestQoS.hostVID[5].app[0] BOLAQualityLevel:vector ETV
attr recordingmode vector
attr title "Requested BOLA quality level (resolution)"
vector 140 baselineTestQoS.hostVID[5].app[0] BOLAUtility:vector ETV
attr recordingmode vector
attr title "Requested BOLA utility"
vector 141 baselineTestQoS.hostVID[5].app[0] BOLAQDMAX:vector ETV
attr recordingmode vector
attr title "Current BOLA Q_D_Max"
vector 142 baselineTestQoS.hostVID[5].app[0] BOLAVD:vector ETV
attr recordingmode vector
attr title "Current BOLA V_D"
vector 143 baselineTestQoS.hostVID[5].app[0] DASHBufferLength:vector ETV
attr recordingmode vector
attr title "Video buffer length (in seconds)"
vector 144 baselineTestQoS.hostVID[5].app[0] DASHVideoPlaybackPointer:vector ETV
attr recordingmode vector
attr title "Video playback pointer"
vector 145 baselineTestQoS.hostVID[5].app[0] DASHVideoBitrate:vector ETV
attr recordingmode vector
attr title "Requested video bitrate"
vector 146 baselineTestQoS.hostVID[5].app[0] DASHVideoResolution:vector ETV
attr recordingmode vector
attr title "Requested video resolution"
vector 147 baselineTestQoS.hostVID[6].app[0] BOLAQualityLevel:vector ETV
attr recordingmode vector
attr title "Requested BOLA quality level (resolution)"
vector 148 baselineTestQoS.hostVID[6].app[0] BOLAUtility:vector ETV
attr recordingmode vector
attr title "Requested BOLA utility"
vector 149 baselineTestQoS.hostVID[6].app[0] BOLAQDMAX:vector ETV
attr recordingmode vector
attr title "Current BOLA Q_D_Max"
vector 150 baselineTestQoS.hostVID[6].app[0] BOLAVD:vector ETV
attr recordingmode vector
attr title "Current BOLA V_D"
vector 151 baselineTestQoS.hostVID[6].app[0] DASHBufferLength:vector ETV
attr recordingmode vector
attr title "Video buffer length (in seconds)"
vector 152 baselineTestQoS.hostVID[6].app[0] DASHVideoPlaybackPointer:vector ETV
attr recordingmode vector
attr title "Video playback pointer"
vector 153 baselineTestQoS.hostVID[6].app[0] DASHVideoBitrate:vector ETV
attr recordingmode vector
attr title "Requested video bitrate"
vector 154 baselineTestQoS.hostVID[6].app[0] DASHVideoResolution:vector ETV
attr recordingmode vector
attr title "Requested video resolution"
vector 155 baselineTestQoS.hostVID[7].app[0] BOLAQualityLevel:vector ETV
attr recordingmode vector
attr title "Requested BOLA quality level (resolution)"
vector 156 baselineTestQoS.hostVID[7].app[0] BOLAUtility:vector ETV
attr recordingmode vector
attr title "Requested BOLA utility"
vector 157 baselineTestQoS.hostVID[7].app[0] BOLAQDMAX:vector ETV
attr recordingmode vector
attr title "Current BOLA Q_D_Max"
vector 158 baselineTestQoS.hostVID[7].app[0] BOLAVD:vector ETV
attr recordingmode vector
attr title "Current BOLA V_D"
vector 159 baselineTestQoS.hostVID[7].app[0] DASHBufferLength:vector ETV
attr recordingmode vector
attr title "Video buffer length (in seconds)"
vector 160 baselineTestQoS.hostVID[7].app[0] DASHVideoPlaybackPointer:vector ETV
attr recordingmode vector
attr title "Video playback pointer"
vector 161 baselineTestQoS.hostVID[7].app[0] DASHVideoBitrate:vector ETV
attr recordingmode vector
attr title "Requested video bitrate"
vector 162 baselineTestQoS.hostVID[7].app[0] DASHVideoResolution:vector ETV
attr recordingmode vector
attr title "Requested video resolution"
vector 163 baselineTestQoS.hostVID[8].app[0] BOLAQualityLevel:vector ETV
attr recordingmode vector
attr title "Requested BOLA quality level (resolution)"
vector 164 baselineTestQoS.hostVID[8].app[0] BOLAUtility:vector ETV
attr recordingmode vector
attr title "Requested BOLA utility"
vector 165 baselineTestQoS.hostVID[8].app[0] BOLAQDMAX:vector ETV
attr recordingmode vector
attr title "Current BOLA Q_D_Max"
vector 166 baselineTestQoS.hostVID[8].app[0] BOLAVD:vector ETV
attr recordingmode vector
attr title "Current BOLA V_D"
vector 167 baselineTestQoS.hostVID[8].app[0] DASHBufferLength:vector ETV
attr recordingmode vector
attr title "Video buffer length (in seconds)"
vector 168 baselineTestQoS.hostVID[8].app[0] DASHVideoPlaybackPointer:vector ETV
attr recordingmode vector
attr title "Video playback pointer"
vector 169 baselineTestQoS.hostVID[8].app[0] DASHVideoBitrate:vector ETV
attr recordingmode vector
attr title "Requested video bitrate"
vector 170 baselineTestQoS.hostVID[8].app[0] DASHVideoResolution:vector ETV
attr recordingmode vector
attr title "Requested video resolution"
vector 171 baselineTestQoS.hostVID[9].app[0] BOLAQualityLevel:vector ETV
attr recordingmode vector
attr title "Requested BOLA quality level (resolution)"
vector 172 baselineTestQoS.hostVID[9].app[0] BOLAUtility:vector ETV
attr recordingmode vector
attr title "Requested BOLA utility"
vector 173 baselineTestQoS.hostVID[9].app[0] BOLAQDMAX:vector ETV
attr recordingmode vector
attr title "Current BOLA Q_D_Max"
vector 174 baselineTestQoS.hostVID[9].app[0] BOLAVD:vector ETV
attr recordingmode vector
attr title "Current BOLA V_D"
vector 175 baselineTestQoS.hostVID[9].app[0] DASHBufferLength:vector ETV
attr recordingmode vector
attr title "Video buffer length (in seconds)"
vector 176 baselineTestQoS.hostVID[9].app[0] DASHVideoPlaybackPointer:vector ETV
attr recordingmode vector
attr title "Video playback pointer"
vector 177 baselineTestQoS.hostVID[9].app[0] DASHVideoBitrate:vector ETV
attr recordingmode vector
attr title "Requested video bitrate"
vector 178 baselineTestQoS.hostVID[9].app[0] DASHVideoResolution:vector ETV
attr recordingmode vector
attr title "Requested video resolution"
vector 179 baselineTestQoS.hostVID[10].app[0] BOLAQualityLevel:vector ETV
attr recordingmode vector
attr title "Requested BOLA quality level (resolution)"
vector 180 baselineTestQoS.hostVID[10].app[0] BOLAUtility:vector ETV
attr recordingmode vector
attr title "Requested BOLA utility"
vector 181 baselineTestQoS.hostVID[10].app[0] BOLAQDMAX:vector ETV
attr recordingmode vector
attr title "Current BOLA Q_D_Max"
vector 182 baselineTestQoS.hostVID[10].app[0] BOLAVD:vector ETV
attr recordingmode vector
attr title "Current BOLA V_D"
vector 183 baselineTestQoS.hostVID[10].app[0] DASHBufferLength:vector ETV
attr recordingmode vector
attr title "Video buffer length (in seconds)"
vector 184 baselineTestQoS.hostVID[10].app[0] DASHVideoPlaybackPointer:vector ETV
attr recordingmode vector
attr title "Video playback pointer"
vector 185 baselineTestQoS.hostVID[10].app[0] DASHVideoBitrate:vector ETV
attr recordingmode vector
attr title "Requested video bitrate"
vector 186 baselineTestQoS.hostVID[10].app[0] DASHVideoResolution:vector ETV
attr recordingmode vector
attr title "Requested video resolution"
vector 187 baselineTestQoS.hostVID[11].app[0] BOLAQualityLevel:vector ETV
attr recordingmode vector
attr title "Requested BOLA quality level (resolution)"
vector 188 baselineTestQoS.hostVID[11].app[0] BOLAUtility:vector ETV
attr recordingmode vector
attr title "Requested BOLA utility"
vector 189 baselineTestQoS.hostVID[11].app[0] BOLAQDMAX:vector ETV
attr recordingmode vector
attr title "Current BOLA Q_D_Max"
vector 190 baselineTestQoS.hostVID[11].app[0] BOLAVD:vector ETV
attr recordingmode vector
attr title "Current BOLA V_D"
vector 191 baselineTestQoS.hostVID[11].app[0] DASHBufferLength:vector ETV
attr recordingmode vector
attr title "Video buffer length (in seconds)"
vector 192 baselineTestQoS.hostVID[11].app[0] DASHVideoPlaybackPointer:vector ETV
attr recordingmode vector
attr title "Video playback pointer"
vector 193 baselineTestQoS.hostVID[11].app[0] DASHVideoBitrate:vector ETV
attr recordingmode vector
attr title "Requested video bitrate"
vector 194 baselineTestQoS.hostVID[11].app[0] DASHVideoResolution:vector ETV
attr recordingmode vector
attr title "Requested video resolution"
vector 195 baselineTestQoS.hostVID[12].app[0] BOLAQualityLevel:vector ETV
attr recordingmode vector
attr title "Requested BOLA quality level (resolution)"
vector 196 baselineTestQoS.hostVID[12].app[0] BOLAUtility:vector ETV
attr recordingmode vector
attr title "Requested BOLA utility"
vector 197 baselineTestQoS.hostVID[12].app[0] BOLAQDMAX:vector ETV
attr recordingmode vector
attr title "Current BOLA Q_D_Max"
vector 198 baselineTestQoS.hostVID[12].app[0] BOLAVD:vector ETV
attr recordingmode vector
attr title "Current BOLA V_D"
vector 199 baselineTestQoS.hostVID[12].app[0] DASHBufferLength:vector ETV
attr recordingmode vector
attr title "Video buffer length (in seconds)"
vector 200 baselineTestQoS.hostVID[12].app[0] DASHVideoPlaybackPointer:vector ETV
attr recordingmode vector
attr title "Video playback pointer"
vector 201 baselineTestQoS.hostVID[12].app[0] DASHVideoBitrate:vector ETV
attr recordingmode vector
attr title "Requested video bitrate"
vector 202 baselineTestQoS.hostVID[12].app[0] DASHVideoResolution:vector ETV
attr recordingmode vector
attr title "Requested video resolution"
vector 203 baselineTestQoS.hostVID[13].app[0] BOLAQualityLevel:vector ETV
attr recordingmode vector
attr title "Requested BOLA quality level (resolution)"
vector 204 baselineTestQoS.hostVID[13].app[0] BOLAUtility:vector ETV
attr recordingmode vector
attr title "Requested BOLA utility"
vector 205 baselineTestQoS.hostVID[13].app[0] BOLAQDMAX:vector ETV
attr recordingmode vector
attr title "Current BOLA Q_D_Max"
vector 206 baselineTestQoS.hostVID[13].app[0] BOLAVD:vector ETV
attr recordingmode vector
attr title "Current BOLA V_D"
vector 207 baselineTestQoS.hostVID[13].app[0] DASHBufferLength:vector ETV
attr recordingmode vector
attr title "Video buffer length (in seconds)"
vector 208 baselineTestQoS.hostVID[13].app[0] DASHVideoPlaybackPointer:vector ETV
attr recordingmode vector
attr title "Video playback pointer"
vector 209 baselineTestQoS.hostVID[13].app[0] DASHVideoBitrate:vector ETV
attr recordingmode vector
attr title "Requested video bitrate"
vector 210 baselineTestQoS.hostVID[13].app[0] DASHVideoResolution:vector ETV
attr recordingmode vector
attr title "Requested video resolution"
vector 211 baselineTestQoS.hostVID[14].app[0] BOLAQualityLevel:vector ETV
attr recordingmode vector
attr title "Requested BOLA quality level (resolution)"
vector 212 baselineTestQoS.hostVID[14].app[0] BOLAUtility:vector ETV
attr recordingmode vector
attr title "Requested BOLA utility"
vector 213 baselineTestQoS.hostVID[14].app[0] BOLAQDMAX:vector ETV
attr recordingmode vector
attr title "Current BOLA Q_D_Max"
vector 214 baselineTestQoS.hostVID[14].app[0] BOLAVD:vector ETV
attr recordingmode vector
attr title "Current BOLA V_D"
vector 215 baselineTestQoS.hostVID[14].app[0] DASHBufferLength:vector ETV
attr recordingmode vector
attr title "Video buffer length (in seconds)"
vector 216 baselineTestQoS.hostVID[14].app[0] DASHVideoPlaybackPointer:vector ETV
attr recordingmode vector
attr title "Video playback pointer"
vector 217 baselineTestQoS.hostVID[14].app[0] DASHVideoBitrate:vector ETV
attr recordingmode vector
attr title "Requested video bitrate"
vector 218 baselineTestQoS.hostVID[14].app[0] DASHVideoResolution:vector ETV
attr recordingmode vector
attr title "Requested video resolution"
vector 219 baselineTestQoS.hostVID[15].app[0] BOLAQualityLevel:vector ETV
attr recordingmode vector
attr title "Requested BOLA quality level (resolution)"
vector 220 baselineTestQoS.hostVID[15].app[0] BOLAUtility:vector ETV
attr recordingmode vector
attr title "Requested BOLA utility"
vector 221 baselineTestQoS.hostVID[15].app[0] BOLAQDMAX:vector ETV
attr recordingmode vector
attr title "Current BOLA Q_D_Max"
vector 222 baselineTestQoS.hostVID[15].app[0] BOLAVD:vector ETV
attr recordingmode vector
attr title "Current BOLA V_D"
vector 223 baselineTestQoS.hostVID[15].app[0] DASHBufferLength:vector ETV
attr recordingmode vector
attr title "Video buffer length (in seconds)"
vector 224 baselineTestQoS.hostVID[15].app[0] DASHVideoPlaybackPointer:vector ETV
attr recordingmode vector
attr title "Video playback pointer"
vector 225 baselineTestQoS.hostVID[15].app[0] DASHVideoBitrate:vector ETV
attr recordingmode vector
attr title "Requested video bitrate"
vector 226 baselineTestQoS.hostVID[15].app[0] DASHVideoResolution:vector ETV
attr recordingmode vector
attr title "Requested video resolution"
vector 227 baselineTestQoS.hostVID[16].app[0] BOLAQualityLevel:vector ETV
attr recordingmode vector
attr title "Requested BOLA quality level (resolution)"
vector 228 baselineTestQoS.hostVID[16].app[0] BOLAUtility:vector ETV
attr recordingmode vector
attr title "Requested BOLA utility"
vector 229 baselineTestQoS.hostVID[16].app[0] BOLAQDMAX:vector ETV
attr recordingmode vector
attr title "Current BOLA Q_D_Max"
vector 230 baselineTestQoS.hostVID[16].app[0] BOLAVD:vector ETV
attr recordingmode vector
attr title "Current BOLA V_D"
vector 231 baselineTestQoS.hostVID[16].app[0] DASHBufferLength:vector ETV
attr recordingmode vector
attr title "Video buffer length (in seconds)"
vector 232 baselineTestQoS.hostVID[16].app[0] DASHVideoPlaybackPointer:vector ETV
attr recordingmode vector
attr title "Video playback pointer"
vector 233 baselineTestQoS.hostVID[16].app[0] DASHVideoBitrate:vector ETV
attr recordingmode vector
attr title "Requested video bitrate"
vector 234 baselineTestQoS.hostVID[16].app[0] DASHVideoResolution:vector ETV
attr recordingmode vector
attr title "Requested video resolution"
vector 235 baselineTestQoS.hostVID[17].app[0] BOLAQualityLevel:vector ETV
attr recordingmode vector
attr title "Requested BOLA quality level (resolution)"
vector 236 baselineTestQoS.hostVID[17].app[0] BOLAUtility:vector ETV
attr recordingmode vector
attr title "Requested BOLA utility"
vector 237 baselineTestQoS.hostVID[17].app[0] BOLAQDMAX:vector ETV
attr recordingmode vector
attr title "Current BOLA Q_D_Max"
vector 238 baselineTestQoS.hostVID[17].app[0] BOLAVD:vector ETV
attr recordingmode vector
attr title "Current BOLA V_D"
vector 239 baselineTestQoS.hostVID[17].app[0] DASHBufferLength:vector ETV
attr recordingmode vector
attr title "Video buffer length (in seconds)"
vector 240 baselineTestQoS.hostVID[17].app[0] DASHVideoPlaybackPointer:vector ETV
attr recordingmode vector
attr title "Video playback pointer"
vector 241 baselineTestQoS.hostVID[17].app[0] DASHVideoBitrate:vector ETV
attr recordingmode vector
attr title "Requested video bitrate"
vector 242 baselineTestQoS.hostVID[17].app[0] DASHVideoResolution:vector ETV
attr recordingmode vector
attr title "Requested video resolution"
vector 243 baselineTestQoS.hostVID[18].app[0] BOLAQualityLevel:vector ETV
attr recordingmode vector
attr title "Requested BOLA quality level (resolution)"
vector 244 baselineTestQoS.hostVID[18].app[0] BOLAUtility:vector ETV
attr recordingmode vector
attr title "Requested BOLA utility"
vector 245 baselineTestQoS.hostVID[18].app[0] BOLAQDMAX:vector ETV
attr recordingmode vector
attr title "Current BOLA Q_D_Max"
vector 246 baselineTestQoS.hostVID[18].app[0] BOLAVD:vector ETV
attr recordingmode vector
attr title "Current BOLA V_D"
vector 247 baselineTestQoS.hostVID[18].app[0] DASHBufferLength:vector ETV
attr recordingmode vector
attr title "Video buffer length (in seconds)"
vector 248 baselineTestQoS.hostVID[18].app[0] DASHVideoPlaybackPointer:vector ETV
attr recordingmode vector
attr title "Video playback pointer"
vector 249 baselineTestQoS.hostVID[18].app[0] DASHVideoBitrate:vector ETV
attr recordingmode vector
attr title "Requested video bitrate"
vector 250 baselineTestQoS.hostVID[18].app[0] DASHVideoResolution:vector ETV
attr recordingmode vector
attr title "Requested video resolution"
vector 251 baselineTestQoS.hostVID[19].app[0] BOLAQualityLevel:vector ETV
attr recordingmode vector
attr title "Requested BOLA quality level (resolution)"
vector 252 baselineTestQoS.hostVID[19].app[0] BOLAUtility:vector ETV
attr recordingmode vector
attr title "Requested BOLA utility"
vector 253 baselineTestQoS.hostVID[19].app[0] BOLAQDMAX:vector ETV
attr recordingmode vector
attr title "Current BOLA Q_D_Max"
vector 254 baselineTestQoS.hostVID[19].app[0] BOLAVD:vector ETV
attr recordingmode vector
attr title "Current BOLA V_D"
vector 255 baselineTestQoS.hostVID[19].app[0] DASHBufferLength:vector ETV
attr recordingmode vector
attr title "Video buffer length (in seconds)"
vector 256 baselineTestQoS.hostVID[19].app[0] DASHVideoPlaybackPointer:vector ETV
attr recordingmode vector
attr title "Video playback pointer"
vector 257 baselineTestQoS.hostVID[19].app[0] DASHVideoBitrate:vector ETV
attr recordingmode vector
attr title "Requested video bitrate"
vector 258 baselineTestQoS.hostVID[19].app[0] DASHVideoResolution:vector ETV
attr recordingmode vector
attr title "Requested video resolution"
vector 259 baselineTestQoS.hostVID[20].app[0] BOLAQualityLevel:vector ETV
attr recordingmode vector
attr title "Requested BOLA quality level (resolution)"
vector 260 baselineTestQoS.hostVID[20].app[0] BOLAUtility:vector ETV
attr recordingmode vector
attr title "Requested BOLA utility"
vector 261 baselineTestQoS.hostVID[20].app[0] BOLAQDMAX:vector ETV
attr recordingmode vector
attr title "Current BOLA Q_D_Max"
vector 262 baselineTestQoS.hostVID[20].app[0] BOLAVD:vector ETV
attr recordingmode vector
attr title "Current BOLA V_D"
vector 263 baselineTestQoS.hostVID[20].app[0] DASHBufferLength:vector ETV
attr recordingmode vector
attr title "Video buffer length (in seconds)"
vector 264 baselineTestQoS.hostVID[20].app[0] DASHVideoPlaybackPointer:vector ETV
attr recordingmode vector
attr title "Video playback pointer"
vector 265 baselineTestQoS.hostVID[20].app[0] DASHVideoBitrate:vector ETV
attr recordingmode vector
attr title "Requested video bitrate"
vector 266 baselineTestQoS.hostVID[20].app[0] DASHVideoResolution:vector ETV
attr recordingmode vector
attr title "Requested video resolution"
vector 267 baselineTestQoS.hostVID[21].app[0] BOLAQualityLevel:vector ETV
attr recordingmode vector
attr title "Requested BOLA quality level (resolution)"
vector 268 baselineTestQoS.hostVID[21].app[0] BOLAUtility:vector ETV
attr recordingmode vector
attr title "Requested BOLA utility"
vector 269 baselineTestQoS.hostVID[21].app[0] BOLAQDMAX:vector ETV
attr recordingmode vector
attr title "Current BOLA Q_D_Max"
vector 270 baselineTestQoS.hostVID[21].app[0] BOLAVD:vector ETV
attr recordingmode vector
attr title "Current BOLA V_D"
vector 271 baselineTestQoS.hostVID[21].app[0] DASHBufferLength:vector ETV
attr recordingmode vector
attr title "Video buffer length (in seconds)"
vector 272 baselineTestQoS.hostVID[21].app[0] DASHVideoPlaybackPointer:vector ETV
attr recordingmode vector
attr title "Video playback pointer"
vector 273 baselineTestQoS.hostVID[21].app[0] DASHVideoBitrate:vector ETV
attr recordingmode vector
attr title "Requested video bitrate"
vector 274 baselineTestQoS.hostVID[21].app[0] DASHVideoResolution:vector ETV
attr recordingmode vector
attr title "Requested video resolution"
vector 275 baselineTestQoS.hostVID[22].app[0] BOLAQualityLevel:vector ETV
attr recordingmode vector
attr title "Requested BOLA quality level (resolution)"
vector 276 baselineTestQoS.hostVID[22].app[0] BOLAUtility:vector ETV
attr recordingmode vector
attr title "Requested BOLA utility"
vector 277 baselineTestQoS.hostVID[22].app[0] BOLAQDMAX:vector ETV
attr recordingmode vector
attr title "Current BOLA Q_D_Max"
vector 278 baselineTestQoS.hostVID[22].app[0] BOLAVD:vector ETV
attr recordingmode vector
attr title "Current BOLA V_D"
vector 279 baselineTestQoS.hostVID[22].app[0] DASHBufferLength:vector ETV
attr recordingmode vector
attr title "Video buffer length (in seconds)"
vector 280 baselineTestQoS.hostVID[22].app[0] DASHVideoPlaybackPointer:vector ETV
attr recordingmode vector
attr title "Video playback pointer"
vector 281 baselineTestQoS.hostVID[22].app[0] DASHVideoBitrate:vector ETV
attr recordingmode vector
attr title "Requested video bitrate"
vector 282 baselineTestQoS.hostVID[22].app[0] DASHVideoResolution:vector ETV
attr recordingmode vector
attr title "Requested video resolution"
vector 283 baselineTestQoS.hostVID[23].app[0] BOLAQualityLevel:vector ETV
attr recordingmode vector
attr title "Requested BOLA quality level (resolution)"
vector 284 baselineTestQoS.hostVID[23].app[0] BOLAUtility:vector ETV
attr recordingmode vector
attr title "Requested BOLA utility"
vector 285 baselineTestQoS.hostVID[23].app[0] BOLAQDMAX:vector ETV
attr recordingmode vector
attr title "Current BOLA Q_D_Max"
vector 286 baselineTestQoS.hostVID[23].app[0] BOLAVD:vector ETV
attr recordingmode vector
attr title "Current BOLA V_D"
vector 287 baselineTestQoS.hostVID[23].app[0] DASHBufferLength:vector ETV
attr recordingmode vector
attr title "Video buffer length (in seconds)"
vector 288 baselineTestQoS.hostVID[23].app[0] DASHVideoPlaybackPointer:vector ETV
attr recordingmode vector
attr title "Video playback pointer"
vector 289 baselineTestQoS.hostVID[23].app[0] DASHVideoBitrate:vector ETV
attr recordingmode vector
attr title "Requested video bitrate"
vector 290 baselineTestQoS.hostVID[23].app[0] DASHVideoResolution:vector ETV
attr recordingmode vector
attr title "Requested video resolution"
vector 291 baselineTestQoS.hostVID[24].app[0] BOLAQualityLevel:vector ETV
attr recordingmode vector
attr title "Requested BOLA quality level (resolution)"
vector 292 baselineTestQoS.hostVID[24].app[0] BOLAUtility:vector ETV
attr recordingmode vector
attr title "Requested BOLA utility"
vector 293 baselineTestQoS.hostVID[24].app[0] BOLAQDMAX:vector ETV
attr recordingmode vector
attr title "Current BOLA Q_D_Max"
vector 294 baselineTestQoS.hostVID[24].app[0] BOLAVD:vector ETV
attr recordingmode vector
attr title "Current BOLA V_D"
vector 295 baselineTestQoS.hostVID[24].app[0] DASHBufferLength:vector ETV
attr recordingmode vector
attr title "Video buffer length (in seconds)"
vector 296 baselineTestQoS.hostVID[24].app[0] DASHVideoPlaybackPointer:vector ETV
attr recordingmode vector
attr title "Video playback pointer"
vector 297 baselineTestQoS.hostVID[24].app[0] DASHVideoBitrate:vector ETV
attr recordingmode vector
attr title "Requested video bitrate"
vector 298 baselineTestQoS.hostVID[24].app[0] DASHVideoResolution:vector ETV
attr recordingmode vector
attr title "Requested video resolution"
vector 299 baselineTestQoS.hostVID[25].app[0] BOLAQualityLevel:vector ETV
attr recordingmode vector
attr title "Requested BOLA quality level (resolution)"
vector 300 baselineTestQoS.hostVID[25].app[0] BOLAUtility:vector ETV
attr recordingmode vector
attr title "Requested BOLA utility"
vector 301 baselineTestQoS.hostVID[25].app[0] BOLAQDMAX:vector ETV
attr recordingmode vector
attr title "Current BOLA Q_D_Max"
vector 302 baselineTestQoS.hostVID[25].app[0] BOLAVD:vector ETV
attr recordingmode vector
attr title "Current BOLA V_D"
vector 303 baselineTestQoS.hostVID[25].app[0] DASHBufferLength:vector ETV
attr recordingmode vector
attr title "Video buffer length (in seconds)"
vector 304 baselineTestQoS.hostVID[25].app[0] DASHVideoPlaybackPointer:vector ETV
attr recordingmode vector
attr title "Video playback pointer"
vector 305 baselineTestQoS.hostVID[25].app[0] DASHVideoBitrate:vector ETV
attr recordingmode vector
attr title "Requested video bitrate"
vector 306 baselineTestQoS.hostVID[25].app[0] DASHVideoResolution:vector ETV
attr recordingmode vector
attr title "Requested video resolution"
vector 307 baselineTestQoS.hostVID[26].app[0] BOLAQualityLevel:vector ETV
attr recordingmode vector
attr title "Requested BOLA quality level (resolution)"
vector 308 baselineTestQoS.hostVID[26].app[0] BOLAUtility:vector ETV
attr recordingmode vector
attr title "Requested BOLA utility"
vector 309 baselineTestQoS.hostVID[26].app[0] BOLAQDMAX:vector ETV
attr recordingmode vector
attr title "Current BOLA Q_D_Max"
vector 310 baselineTestQoS.hostVID[26].app[0] BOLAVD:vector ETV
attr recordingmode vector
attr title "Current BOLA V_D"
vector 311 baselineTestQoS.hostVID[26].app[0] DASHBufferLength:vector ETV
attr recordingmode vector
attr title "Video buffer length (in seconds)"
vector 312 baselineTestQoS.hostVID[26].app[0] DASHVideoPlaybackPointer:vector ETV
attr recordingmode vector
attr title "Video playback pointer"
vector 313 baselineTestQoS.hostVID[26].app[0] DASHVideoBitrate:vector ETV
attr recordingmode vector
attr title "Requested video bitrate"
vector 314 baselineTestQoS.hostVID[26].app[0] DASHVideoResolution:vector ETV
attr recordingmode vector
attr title "Requested video resolution"
vector 315 baselineTestQoS.hostVID[27].app[0] BOLAQualityLevel:vector ETV
attr recordingmode vector
attr title "Requested BOLA quality level (resolution)"
vector 316 baselineTestQoS.hostVID[27].app[0] BOLAUtility:vector ETV
attr recordingmode vector
attr title "Requested BOLA utility"
vector 317 baselineTestQoS.hostVID[27].app[0] BOLAQDMAX:vector ETV
attr recordingmode vector
attr title "Current BOLA Q_D_Max"
vector 318 baselineTestQoS.hostVID[27].app[0] BOLAVD:vector ETV
attr recordingmode vector
attr title "Current BOLA V_D"
vector 319 baselineTestQoS.hostVID[27].app[0] DASHBufferLength:vector ETV
attr recordingmode vector
attr title "Video buffer length (in seconds)"
vector 320 baselineTestQoS.hostVID[27].app[0] DASHVideoPlaybackPointer:vector ETV
attr recordingmode vector
attr title "Video playback pointer"
vector 321 baselineTestQoS.hostVID[27].app[0] DASHVideoBitrate:vector ETV
attr recordingmode vector
attr title "Requested video bitrate"
vector 322 baselineTestQoS.hostVID[27].app[0] DASHVideoResolution:vector ETV
attr recordingmode vector
attr title "Requested video resolution"
vector 323 baselineTestQoS.hostVID[28].app[0] BOLAQualityLevel:vector ETV
attr recordingmode vector
attr title "Requested BOLA quality level (resolution)"
vector 324 baselineTestQoS.hostVID[28].app[0] BOLAUtility:vector ETV
attr recordingmode vector
attr title "Requested BOLA utility"
vector 325 baselineTestQoS.hostVID[28].app[0] BOLAQDMAX:vector ETV
attr recordingmode vector
attr title "Current BOLA Q_D_Max"
vector 326 baselineTestQoS.hostVID[28].app[0] BOLAVD:vector ETV
attr recordingmode vector
attr title "Current BOLA V_D"
vector 327 baselineTestQoS.hostVID[28].app[0] DASHBufferLength:vector ETV
attr recordingmode vector
attr title "Video buffer length (in seconds)"
vector 328 baselineTestQoS.hostVID[28].app[0] DASHVideoPlaybackPointer:vector ETV
attr recordingmode vector
attr title "Video playback pointer"
vector 329 baselineTestQoS.hostVID[28].app[0] DASHVideoBitrate:vector ETV
attr recordingmode vector
attr title "Requested video bitrate"
vector 330 baselineTestQoS.hostVID[28].app[0] DASHVideoResolution:vector ETV
attr recordingmode vector
attr title "Requested video resolution"
vector 331 baselineTestQoS.hostVID[29].app[0] BOLAQualityLevel:vector ETV
attr recordingmode vector
attr title "Requested BOLA quality level (resolution)"
vector 332 baselineTestQoS.hostVID[29].app[0] BOLAUtility:vector ETV
attr recordingmode vector
attr title "Requested BOLA utility"
vector 333 baselineTestQoS.hostVID[29].app[0] BOLAQDMAX:vector ETV
attr recordingmode vector
attr title "Current BOLA Q_D_Max"
vector 334 baselineTestQoS.hostVID[29].app[0] BOLAVD:vector ETV
attr recordingmode vector
attr title "Current BOLA V_D"
vector 335 baselineTestQoS.hostVID[29].app[0] DASHBufferLength:vector ETV
attr recordingmode vector
attr title "Video buffer length (in seconds)"
vector 336 baselineTestQoS.hostVID[29].app[0] DASHVideoPlaybackPointer:vector ETV
attr recordingmode vector
attr title "Video playback pointer"
vector 337 baselineTestQoS.hostVID[29].app[0] DASHVideoBitrate:vector ETV
attr recordingmode vector
attr title "Requested video bitrate"
vector 338 baselineTestQoS.hostVID[29].app[0] DASHVideoResolution:vector ETV
attr recordingmode vector
attr title "Requested video resolution"
vector 339 baselineTestQoS.hostVID[30].app[0] BOLAQualityLevel:vector ETV
attr recordingmode vector
attr title "Requested BOLA quality level (resolution)"
vector 340 baselineTestQoS.hostVID[30].app[0] BOLAUtility:vector ETV
attr recordingmode vector
attr title "Requested BOLA utility"
vector 341 baselineTestQoS.hostVID[30].app[0] BOLAQDMAX:vector ETV
attr recordingmode vector
attr title "Current BOLA Q_D_Max"
vector 342 baselineTestQoS.hostVID[30].app[0] BOLAVD:vector ETV
attr recordingmode vector
attr title "Current BOLA V_D"
vector 343 baselineTestQoS.hostVID[30].app[0] DASHBufferLength:vector ETV
attr recordingmode vector
attr title "Video buffer length (in seconds)"
vector 344 baselineTestQoS.hostVID[30].app[0] DASHVideoPlaybackPointer:vector ETV
attr recordingmode vector
attr title "Video playback pointer"
vector 345 baselineTestQoS.hostVID[30].app[0] DASHVideoBitrate:vector ETV
attr recordingmode vector
attr title "Requested video bitrate"
vector 346 baselineTestQoS.hostVID[30].app[0] DASHVideoResolution:vector ETV
attr recordingmode vector
attr title "Requested video resolution"
vector 347 baselineTestQoS.hostVID[31].app[0] BOLAQualityLevel:vector ETV
attr recordingmode vector
attr title "Requested BOLA quality level (resolution)"
vector 348 baselineTestQoS.hostVID[31].app[0] BOLAUtility:vector ETV
attr recordingmode vector
attr title "Requested BOLA utility"
vector 349 baselineTestQoS.hostVID[31].app[0] BOLAQDMAX:vector ETV
attr recordingmode vector
attr title "Current BOLA Q_D_Max"
vector 350 baselineTestQoS.hostVID[31].app[0] BOLAVD:vector ETV
attr recordingmode vector
attr title "Current BOLA V_D"
vector 351 baselineTestQoS.hostVID[31].app[0] DASHBufferLength:vector ETV
attr recordingmode vector
attr title "Video buffer length (in seconds)"
vector 352 baselineTestQoS.hostVID[31].app[0] DASHVideoPlaybackPointer:vector ETV
attr recordingmode vector
attr title "Video playback pointer"
vector 353 baselineTestQoS.hostVID[31].app[0] DASHVideoBitrate:vector ETV
attr recordingmode vector
attr title "Requested video bitrate"
vector 354 baselineTestQoS.hostVID[31].app[0] DASHVideoResolution:vector ETV
attr recordingmode vector
attr title "Requested video resolution"
vector 355 baselineTestQoS.hostVID[32].app[0] BOLAQualityLevel:vector ETV
attr recordingmode vector
attr title "Requested BOLA quality level (resolution)"
vector 356 baselineTestQoS.hostVID[32].app[0] BOLAUtility:vector ETV
attr recordingmode vector
attr title "Requested BOLA utility"
vector 357 baselineTestQoS.hostVID[32].app[0] BOLAQDMAX:vector ETV
attr recordingmode vector
attr title "Current BOLA Q_D_Max"
vector 358 baselineTestQoS.hostVID[32].app[0] BOLAVD:vector ETV
attr recordingmode vector
attr title "Current BOLA V_D"
vector 359 baselineTestQoS.hostVID[32].app[0] DASHBufferLength:vector ETV
attr recordingmode vector
attr title "Video buffer length (in seconds)"
vector 360 baselineTestQoS.hostVID[32].app[0] DASHVideoPlaybackPointer:vector ETV
attr recordingmode vector
attr title "Video playback pointer"
vector 361 baselineTestQoS.hostVID[32].app[0] DASHVideoBitrate:vector ETV
attr recordingmode vector
attr title "Requested video bitrate"
vector 362 baselineTestQoS.hostVID[32].app[0] DASHVideoResolution:vector ETV
attr recordingmode vector
attr title "Requested video resolution"
vector 363 baselineTestQoS.hostVID[33].app[0] BOLAQualityLevel:vector ETV
attr recordingmode vector
attr title "Requested BOLA quality level (resolution)"
vector 364 baselineTestQoS.hostVID[33].app[0] BOLAUtility:vector ETV
attr recordingmode vector
attr title "Requested BOLA utility"
vector 365 baselineTestQoS.hostVID[33].app[0] BOLAQDMAX:vector ETV
attr recordingmode vector
attr title "Current BOLA Q_D_Max"
vector 366 baselineTestQoS.hostVID[33].app[0] BOLAVD:vector ETV
attr recordingmode vector
attr title "Current BOLA V_D"
vector 367 baselineTestQoS.hostVID[33].app[0] DASHBufferLength:vector ETV
attr recordingmode vector
attr title "Video buffer length (in seconds)"
vector 368 baselineTestQoS.hostVID[33].app[0] DASHVideoPlaybackPointer:vector ETV
attr recordingmode vector
attr title "Video playback pointer"
vector 369 baselineTestQoS.hostVID[33].app[0] DASHVideoBitrate:vector ETV
attr recordingmode vector
attr title "Requested video bitrate"
vector 370 baselineTestQoS.hostVID[33].app[0] DASHVideoResolution:vector ETV
attr recordingmode vector
attr title "Requested video resolution"
vector 371 baselineTestQoS.hostVID[34].app[0] BOLAQualityLevel:vector ETV
attr recordingmode vector
attr title "Requested BOLA quality level (resolution)"
vector 372 baselineTestQoS.hostVID[34].app[0] BOLAUtility:vector ETV
attr recordingmode vector
attr title "Requested BOLA utility"
vector 373 baselineTestQoS.hostVID[34].app[0] BOLAQDMAX:vector ETV
attr recordingmode vector
attr title "Current BOLA Q_D_Max"
vector 374 baselineTestQoS.hostVID[34].app[0] BOLAVD:vector ETV
attr recordingmode vector
attr title "Current BOLA V_D"
[...]
1744	26271393 30 1849575 1849575 8.133688247462 8.133688247462 1 0 0 0 0
1745	26271423 44 1849575 1849575 8.133688247462 8.133688247462 1 4.3848223363035 4.3848223363035 4.3848223363035 19.226666920946
1746	26271467 30 1849575 1849575 8.133688247462 8.133688247462 1 0 0 0 0
1747	26271497 35 1600226 1600226 7.077198991462 7.077198991462 1 206875 206875 206875 42797265625
1753	26271532 35 1606326 1606326 7.098923231462 7.098923231462 1 206875 206875 206875 42797265625
1754	26271567 35 1608815 1608815 7.107886431462 7.107886431462 1 206875 206875 206875 42797265625
1760	26271602 35 1623835 1623835 7.164081854857 7.164081854857 1 206875 206875 206875 42797265625
1761	26271637 35 1627174 1627174 7.175829095523 7.175829095523 1 206875 206875 206875 42797265625
1762	26271672 35 1626996 1626996 7.175170455523 7.175170455523 1 206875 206875 206875 42797265625
1764	26271707 35 1640804 1640804 7.226212094723 7.226212094723 1 206875 206875 206875 42797265625
1765	26271742 35 1639395 1639395 7.221176334723 7.221176334723 1 206875 206875 206875 42797265625
1770	26271777 35 1651624 1651624 7.265166594218 7.265166594218 1 206875 206875 206875 42797265625
1771	26271812 30 1538045 1538045 6.801751830857 6.801751830857 1 0 0 0 0
1772	26271842 33 1538045 1538045 6.801751830857 6.801751830857 1 0.02 0.02 0.02 0.0004
1773	26271875 45 1538045 1538045 6.801751830857 6.801751830857 1 0.20171673819742 0.20171673819742 0.20171673819742 0.040689642469008
1774	26271920 44 1538045 1538045 6.801751830857 6.801751830857 1 1.6861337957737 1.6861337957737 1.6861337957737 2.8430471772501
1775	26271964 30 1538045 1538045 6.801751830857 6.801751830857 1 0 0 0 0
1776	26271994 35 1654556 1654556 7.275451704323 7.275451704323 1 206875 206875 206875 42797265625
1783	26272029 35 1661218 1661218 7.300127549123 7.300127549123 1 206875 206875 206875 42797265625
1784	26272064 35 1661126 1661126 7.299828669123 7.299828669123 1 206875 206875 206875 42797265625
1789	26272099 30 1703598 1703598 7.463675695018 7.463675695018 1 0 0 0 0
1790	26272129 33 1703598 1703598 7.463675695018 7.463675695018 1 0.02 0.02 0.02 0.0004
1791	26272162 30 1703598 1703598 7.463675695018 7.463675695018 1 0 0 0 0
1792	26272192 44 1703598 1703598 7.463675695018 7.463675695018 1 4.3847724435091 4.3847724435091 4.3847724435091 19.226229381357
1793	26272236 30 1703598 1703598 7.463675695018 7.463675695018 1 0 0 0 0
1795	26272266 29 1663169 1663169 7.30808815197 7.30808815197 1 0 0 0 0
1796	26272295 32 1663169 1663169 7.30808815197 7.30808815197 1 0.02 0.02 0.02 0.0004
1797	26272327 29 1663169 1663169 7.30808815197 7.30808815197 1 0 0 0 0
1798	26272356 43 1663169 1663169 7.30808815197 7.30808815197 1 4.3848137243736 4.3848137243736 4.3848137243736 19.226591397455
1799	26272399 29 1663169 1663169 7.30808815197 7.30808815197 1 0 0 0 0
1801	26272428 60 1573129 1718715 6.995005981257 7.524921544618 2 0 0 0 0
1802	26272488 66 1573129 1718715 6.995005981257 7.524921544618 2 0.02 0.02 0.04 0.0008
1803	26272554 60 1573129 1718715 6.995005981257 7.524921544618 2 0 0 0 0
1804	26272614 88 1573129 1718715 6.995005981257 7.524921544618 2 4.3848054023949 4.3848316318579 8.7696370342528 38.453266856613
1805	26272702 60 1573129 1718715 6.995005981257 7.524921544618 2 0 0 0 0
1806	26272762 30 1851252 1851252 8.139965842329 8.139965842329 1 0 0 0 0
1807	26272792 33 1851252 1851252 8.139965842329 8.139965842329 1 0.02 0.02 0.02 0.0004
1808	26272825 45 1851252 1851252 8.139965842329 8.139965842329 1 0.17741935483871 0.17741935483871 0.17741935483871 0.031477627471384
1809	26272870 44 1851252 1851252 8.139965842329 8.139965842329 1 1.8000661888172 1.8000661888172 1.8000661888172 3.2402382841227
1810	26272914 30 1851252 1851252 8.139965842329 8.139965842329 1 0 0 0 0
1817	26272944 30 1767846 1767846 7.776145616618 7.776145616618 1 0 0 0 0
1818	26272974 33 1767846 1767846 7.776145616618 7.776145616618 1 0.02 0.02 0.02 0.0004
1819	26273007 30 1767846 1767846 7.776145616618 7.776145616618 1 0 0 0 0
1820	26273037 44 1767846 1767846 7.776145616618 7.776145616618 1 4.3845124239408 4.3845124239408 4.3845124239408 19.223949195691
1821	26273081 30 1767846 1767846 7.776145616618 7.776145616618 1 0 0 0 0
1824	26273111 30 1786594 1786594 7.885483462723 7.885483462723 1 0 0 0 0
1825	26273141 33 1786594 1786594 7.885483462723 7.885483462723 1 0.02 0.02 0.02 0.0004
1826	26273174 30 1786594 1786594 7.885483462723 7.885483462723 1 0 0 0 0
1827	26273204 44 1786594 1786594 7.885483462723 7.885483462723 1 4.3848092755002 4.3848092755002 4.3848092755002 19.226552382513
1828	26273248 30 1786594 1786594 7.885483462723 7.885483462723 1 0 0 0 0
1834	26273278 90 1560143 1764502 6.922110730057 7.758952882081 3 0 0 0 0
1835	26273368 99 1560143 1764502 6.922110730057 7.758952882081 3 0.02 0.02 0.06 0.0012
1836	26273467 90 1560143 1764502 6.922110730057 7.758952882081 3 0 0 0 0
1837	26273557 132 1560143 1764502 6.922110730057 7.758952882081 3 4.3845496918305 4.3848296208564 13.154128933733 57.677036043339
1838	26273689 90 1560143 1764502 6.922110730057 7.758952882081 3 0 0 0 0
1844	26273779 30 1613764 1613764 7.124769784888 7.124769784888 1 0 0 0 0
1845	26273809 33 1613764 1613764 7.124769784888 7.124769784888 1 0.02 0.02 0.02 0.0004
1846	26273842 30 1613764 1613764 7.124769784888 7.124769784888 1 0 0 0 0
1847	26273872 44 1613764 1613764 7.124769784888 7.124769784888 1 4.3847923022598 4.3847923022598 4.3847923022598 19.226403533957
1848	26273916 30 1613764 1613764 7.124769784888 7.124769784888 1 0 0 0 0
1859	26273946 28 1707813 1707813 7.4802821056 7.4802821056 1 0 0 0 0
1860	26273974 31 1707813 1707813 7.4802821056 7.4802821056 1 0.02 0.02 0.02 0.0004
1861	26274005 28 1707813 1707813 7.4802821056 7.4802821056 1 0 0 0 0
1862	26274033 42 1707813 1707813 7.4802821056 7.4802821056 1 4.3830074251659 4.3830074251659 4.3830074251659 19.210754089059
1863	26274075 28 1707813 1707813 7.4802821056 7.4802821056 1 0 0 0 0
1884	26274103 60 1789856 1920707 7.903375501257 8.402223893445 2 0 0 0 0
1885	26274163 66 1789856 1920707 7.903375501257 8.402223893445 2 0.02 0.02 0.04 0.0008
1886	26274229 77 1789856 1920707 7.903375501257 8.402223893445 2 0 0.0065359477124183 0.0065359477124183 4.2718612499466e-05
1887	26274306 88 1789856 1920707 7.903375501257 8.402223893445 2 3.0809942574683 3.5763228665325 6.6573171240008 22.282610860236
1888	26274394 60 1789856 1920707 7.903375501257 8.402223893445 2 0 0 0 0
1889	26274454 30 1761676 1761676 7.741582587755 7.741582587755 1 0 0 0 0
1890	26274484 33 1761676 1761676 7.741582587755 7.741582587755 1 0.02 0.02 0.02 0.0004
1891	26274517 45 1761676 1761676 7.741582587755 7.741582587755 1 0.30201342281879 0.30201342281879 0.30201342281879 0.091212107562722
1892	26274562 44 1761676 1761676 7.741582587755 7.741582587755 1 1.3938559252927 1.3938559252927 1.3938559252927 1.9428343404737
1893	26274606 30 1761676 1761676 7.741582587755 7.741582587755 1 0 0 0 0
vector 1894 baselineTestQoS.hostVIP[5].app[0] packetLossRate:vector ETV
attr recordingmode vector
attr source voipPacketLossRate
attr title "VoIP Packet Loss"
attr unit ratio
vector 1895 baselineTestQoS.hostVIP[5].app[0] playoutDelay:vector ETV
attr recordingmode vector
attr source voipPlayoutDelay
attr title "VoIP Playout Delay"
attr unit s
vector 1896 baselineTestQoS.hostVIP[5].app[0] playoutLossRate:vector ETV
attr recordingmode vector
attr source voipPlayoutLossRate
attr title "VoIP Playout Loss Rate"
attr unit ratio
vector 1897 baselineTestQoS.hostVIP[5].app[0] mos:vector ETV
attr recordingmode vector
attr source voipMosRate
attr title "VoIP MOS"
attr unit MOS
vector 1898 baselineTestQoS.hostVIP[5].app[0] taildropLossRate:vector ETV
attr recordingmode vector
attr source voipTaildropLossRate
attr title "VoIP Tail Drop Loss Rate"
attr unit ratio
1480	26275497 30 1925120 1925120 8.419981513445 8.419981513445 1 0 0 0 0
1481	26275527 33 1925120 1925120 8.419981513445 8.419981513445 1 0.02 0.02 0.02 0.0004
1482	26275560 30 1925120 1925120 8.419981513445 8.419981513445 1 0 0 0 0
1483	26275590 44 1925120 1925120 8.419981513445 8.419981513445 1 4.3843217524939 4.3843217524939 4.3843217524939 19.222277229392
1484	26275634 30 1925120 1925120 8.419981513445 8.419981513445 1 0 0 0 0
1627	26275664 30 1925120 1925120 8.419981513445 8.419981513445 1 0 0 0 0
1628	26275694 33 1925120 1925120 8.419981513445 8.419981513445 1 0.02 0.02 0.02 0.0004
1629	26275727 46 1925120 1925120 8.419981513445 8.419981513445 1 0.014705882352941 0.014705882352941 0.014705882352941 0.00021626297577855
1630	26275773 44 1925120 1925120 8.419981513445 8.419981513445 1 4.0412703191639 4.0412703191639 4.0412703191639 16.331865792555
1631	26275817 30 1925120 1925120 8.419981513445 8.419981513445 1 0 0 0 0
1674	26275847 30 1925120 1925120 8.419981513445 8.419981513445 1 0 0 0 0
1675	26275877 33 1925120 1925120 8.419981513445 8.419981513445 1 0.02 0.02 0.02 0.0004
1676	26275910 46 1925120 1925120 8.419981513445 8.419981513445 1 0.020134228187919 0.020134228187919 0.020134228187919 0.00040538714472321
1677	26275956 44 1925120 1925120 8.419981513445 8.419981513445 1 3.9022068976683 3.9022068976683 3.9022068976683 15.22721867221
1678	26276000 30 1925120 1925120 8.419981513445 8.419981513445 1 0 0 0 0
1679	26276030 30 1925120 1925120 8.419981513445 8.419981513445 1 0 0 0 0
1680	26276060 33 1925120 1925120 8.419981513445 8.419981513445 1 0.02 0.02 0.02 0.0004
1681	26276093 30 1925120 1925120 8.419981513445 8.419981513445 1 0 0 0 0
1682	26276123 43 1925120 1925120 8.419981513445 8.419981513445 1 4.384090114083 4.384090114083 4.384090114083 19.220246128401
1683	26276166 30 1925120 1925120 8.419981513445 8.419981513445 1 0 0 0 0
1716	26276196 30 1925120 1925120 8.419981513445 8.419981513445 1 0 0 0 0
1717	26276226 33 1925120 1925120 8.419981513445 8.419981513445 1 0.02 0.02 0.02 0.0004
1718	26276259 30 1925120 1925120 8.419981513445 8.419981513445 1 0 0 0 0
1719	26276289 44 1925120 1925120 8.419981513445 8.419981513445 1 4.3848108190178 4.3848108190178 4.3848108190178 19.226565918576
1720	26276333 30 1925120 1925120 8.419981513445 8.419981513445 1 0 0 0 0
1730	26276363 30 1925120 1925120 8.419981513445 8.419981513445 1 0 0 0 0
1731	26276393 33 1925120 1925120 8.419981513445 8.419981513445 1 0.02 0.02 0.02 0.0004
1732	26276426 30 1925120 1925120 8.419981513445 8.419981513445 1 0 0 0 0
1733	26276456 44 1925120 1925120 8.419981513445 8.419981513445 1 4.3820929205313 4.3820929205313 4.3820929205313 19.20273836417
1734	26276500 30 1925120 1925120 8.419981513445 8.419981513445 1 0 0 0 0
1748	26276530 30 1925120 1925120 8.419981513445 8.419981513445 1 0 0 0 0
1749	26276560 33 1925120 1925120 8.419981513445 8.419981513445 1 0.02 0.02 0.02 0.0004
1750	26276593 47 1925120 1925120 8.419981513445 8.419981513445 1 0.0052356020942408 0.0052356020942408 0.0052356020942408 2.7411529289219e-05
1751	26276640 44 1925120 1925120 8.419981513445 8.419981513445 1 4.2734317912675 4.2734317912675 4.2734317912675 18.262219274616
1752	26276684 30 1925120 1925120 8.419981513445 8.419981513445 1 0 0 0 0
1771	26276714 30 1925120 1925120 8.419981513445 8.419981513445 1 0 0 0 0
1772	26276744 33 1925120 1925120 8.419981513445 8.419981513445 1 0.02 0.02 0.02 0.0004
1773	26276777 30 1925120 1925120 8.419981513445 8.419981513445 1 0 0 0 0
1774	26276807 44 1925120 1925120 8.419981513445 8.419981513445 1 4.3848555842411 4.3848555842411 4.3848555842411 19.22695849465
1775	26276851 30 1925120 1925120 8.419981513445 8.419981513445 1 0 0 0 0
1778	26276881 30 1925120 1925120 8.419981513445 8.419981513445 1 0 0 0 0
1779	26276911 33 1925120 1925120 8.419981513445 8.419981513445 1 0.02 0.02 0.02 0.0004
1780	26276944 46 1925120 1925120 8.419981513445 8.419981513445 1 0.022547227300427 0.022547227300427 0.022547227300427 0.0005083774589371
1781	26276990 44 1925120 1925120 8.419981513445 8.419981513445 1 2.7349326927678 2.7349326927678 2.7349326927678 7.47985683397
1782	26277034 30 1925120 1925120 8.419981513445 8.419981513445 1 0 0 0 0
1789	26277064 30 1925120 1925120 8.419981513445 8.419981513445 1 0 0 0 0
1790	26277094 33 1925120 1925120 8.419981513445 8.419981513445 1 0.02 0.02 0.02 0.0004
1791	26277127 30 1925120 1925120 8.419981513445 8.419981513445 1 0 0 0 0
1792	26277157 44 1925120 1925120 8.419981513445 8.419981513445 1 4.3836622090403 4.3836622090403 4.3836622090403 19.216494362968
1793	26277201 30 1925120 1925120 8.419981513445 8.419981513445 1 0 0 0 0
1801	26277231 30 1925120 1925120 8.419981513445 8.419981513445 1 0 0 0 0
1802	26277261 33 1925120 1925120 8.419981513445 8.419981513445 1 0.02 0.02 0.02 0.0004
1803	26277294 30 1925120 1925120 8.419981513445 8.419981513445 1 0 0 0 0
1804	26277324 44 1925120 1925120 8.419981513445 8.419981513445 1 4.3845426123941 4.3845426123941 4.3845426123941 19.224213919899
1805	26277368 30 1925120 1925120 8.419981513445 8.419981513445 1 0 0 0 0
1806	26277398 30 1925120 1925120 8.419981513445 8.419981513445 1 0 0 0 0
1807	26277428 33 1925120 1925120 8.419981513445 8.419981513445 1 0.02 0.02 0.02 0.0004
1808	26277461 30 1925120 1925120 8.419981513445 8.419981513445 1 0 0 0 0
1809	26277491 44 1925120 1925120 8.419981513445 8.419981513445 1 4.3847656604874 4.3847656604874 4.3847656604874 19.22616989739
1810	26277535 30 1925120 1925120 8.419981513445 8.419981513445 1 0 0 0 0
1811	26277565 30 1925120 1925120 8.419981513445 8.419981513445 1 0 0 0 0
1812	26277595 33 1925120 1925120 8.419981513445 8.419981513445 1 0.02 0.02 0.02 0.0004
1813	26277628 46 1925120 1925120 8.419981513445 8.419981513445 1 0.017467248908297 0.017467248908297 0.017467248908297 0.0003051047844244
1814	26277674 43 1925120 1925120 8.419981513445 8.419981513445 1 3.970538770161 3.970538770161 3.970538770161 15.765178125351
1815	26277717 30 1925120 1925120 8.419981513445 8.419981513445 1 0 0 0 0
1817	26277747 30 1925120 1925120 8.419981513445 8.419981513445 1 0 0 0 0
1818	26277777 33 1925120 1925120 8.419981513445 8.419981513445 1 0.02 0.02 0.02 0.0004
1819	26277810 30 1925120 1925120 8.419981513445 8.419981513445 1 0 0 0 0
1820	26277840 44 1925120 1925120 8.419981513445 8.419981513445 1 4.3848187975431 4.3848187975431 4.3848187975431 19.226635887287
1821	26277884 30 1925120 1925120 8.419981513445 8.419981513445 1 0 0 0 0
1824	26277914 30 1925120 1925120 8.419981513445 8.419981513445 1 0 0 0 0
1825	26277944 33 1925120 1925120 8.419981513445 8.419981513445 1 0.02 0.02 0.02 0.0004
1826	26277977 30 1925120 1925120 8.419981513445 8.419981513445 1 0 0 0 0
1827	26278007 44 1925120 1925120 8.419981513445 8.419981513445 1 4.3847952288338 4.3847952288338 4.3847952288338 19.226429198804
1828	26278051 30 1925120 1925120 8.419981513445 8.419981513445 1 0 0 0 0
1829	26278081 30 1925120 1925120 8.419981513445 8.419981513445 1 0 0 0 0
1830	26278111 33 1925120 1925120 8.419981513445 8.419981513445 1 0.02 0.02 0.02 0.0004
1831	26278144 30 1925120 1925120 8.419981513445 8.419981513445 1 0 0 0 0
1832	26278174 44 1925120 1925120 8.419981513445 8.419981513445 1 4.3847736258264 4.3847736258264 4.3847736258264 19.226239749743
1833	26278218 30 1925120 1925120 8.419981513445 8.419981513445 1 0 0 0 0
1834	26278248 30 1925120 1925120 8.419981513445 8.419981513445 1 0 0 0 0
1835	26278278 33 1925120 1925120 8.419981513445 8.419981513445 1 0.02 0.02 0.02 0.0004
1836	26278311 30 1925120 1925120 8.419981513445 8.419981513445 1 0 0 0 0
1837	26278341 44 1925120 1925120 8.419981513445 8.419981513445 1 4.3848092755002 4.3848092755002 4.3848092755002 19.226552382513
1838	26278385 30 1925120 1925120 8.419981513445 8.419981513445 1 0 0 0 0
1839	26278415 30 1925120 1925120 8.419981513445 8.419981513445 1 0 0 0 0
1840	26278445 33 1925120 1925120 8.419981513445 8.419981513445 1 0.02 0.02 0.02 0.0004
1841	26278478 30 1925120 1925120 8.419981513445 8.419981513445 1 0 0 0 0
1842	26278508 44 1925120 1925120 8.419981513445 8.419981513445 1 4.3847761536511 4.3847761536511 4.3847761536511 19.226261917627
1843	26278552 30 1925120 1925120 8.419981513445 8.419981513445 1 0 0 0 0
1844	26278582 30 1925120 1925120 8.419981513445 8.419981513445 1 0 0 0 0
1845	26278612 33 1925120 1925120 8.419981513445 8.419981513445 1 0.02 0.02 0.02 0.0004
1846	26278645 30 1925120 1925120 8.419981513445 8.419981513445 1 0 0 0 0
1847	26278675 44 1925120 1925120 8.419981513445 8.419981513445 1 4.3848568726713 4.3848568726713 4.3848568726713 19.226969793813
1848	26278719 30 1925120 1925120 8.419981513445 8.419981513445 1 0 0 0 0
1849	26278749 30 1925120 1925120 8.419981513445 8.419981513445 1 0 0 0 0
1850	26278779 33 1925120 1925120 8.419981513445 8.419981513445 1 0.02 0.02 0.02 0.0004
1851	26278812 30 1925120 1925120 8.419981513445 8.419981513445 1 0 0 0 0
1852	26278842 43 1925120 1925120 8.419981513445 8.419981513445 1 4.384818200947 4.384818200947 4.384818200947 19.226630655356
1853	26278885 30 1925120 1925120 8.419981513445 8.419981513445 1 0 0 0 0
1854	26278915 30 1925120 1925120 8.419981513445 8.419981513445 1 0 0 0 0
1855	26278945 33 1925120 1925120 8.419981513445 8.419981513445 1 0.02 0.02 0.02 0.0004
1856	26278978 30 1925120 1925120 8.419981513445 8.419981513445 1 0 0 0 0
1857	26279008 44 1925120 1925120 8.419981513445 8.419981513445 1 4.3845814140661 4.3845814140661 4.3845814140661 19.224554176574
1858	26279052 30 1925120 1925120 8.419981513445 8.419981513445 1 0 0 0 0
1859	26279082 30 1925120 1925120 8.419981513445 8.419981513445 1 0 0 0 0
1860	26279112 33 1925120 1925120 8.419981513445 8.419981513445 1 0.02 0.02 0.02 0.0004
1861	26279145 30 1925120 1925120 8.419981513445 8.419981513445 1 0 0 0 0
1862	26279175 44 1925120 1925120 8.419981513445 8.419981513445 1 4.3848092755002 4.3848092755002 4.3848092755002 19.226552382513
1863	26279219 30 1925120 1925120 8.419981513445 8.419981513445 1 0 0 0 0
1868	26279249 30 1925120 1925120 8.419981513445 8.419981513445 1 0 0 0 0
1869	26279279 33 1925120 1925120 8.419981513445 8.419981513445 1 0.02 0.02 0.02 0.0004
1870	26279312 30 1925120 1925120 8.419981513445 8.419981513445 1 0 0 0 0
1871	26279342 44 1925120 1925120 8.419981513445 8.419981513445 1 4.3832873966373 4.3832873966373 4.3832873966373 19.213208401519
1872	26279386 30 1925120 1925120 8.419981513445 8.419981513445 1 0 0 0 0
1877	26279416 30 1925120 1925120 8.419981513445 8.419981513445 1 0 0 0 0
1878	26279446 33 1925120 1925120 8.419981513445 8.419981513445 1 0.02 0.02 0.02 0.0004
1879	26279479 47 1925120 1925120 8.419981513445 8.419981513445 1 0.0064935064935065 0.0064935064935065 0.0064935064935065 4.2165626581211e-05
1880	26279526 44 1925120 1925120 8.419981513445 8.419981513445 1 4.2443040839777 4.2443040839777 4.2443040839777 18.01411715727
1881	26279570 30 1925120 1925120 8.419981513445 8.419981513445 1 0 0 0 0
1884	26279600 30 1925120 1925120 8.419981513445 8.419981513445 1 0 0 0 0
1885	26279630 33 1925120 1925120 8.419981513445 8.419981513445 1 0.02 0.02 0.02 0.0004
1886	26279663 30 1925120 1925120 8.419981513445 8.419981513445 1 0 0 0 0
1887	26279693 43 1925120 1925120 8.419981513445 8.419981513445 1 3.492497190271 3.492497190271 3.492497190271 12.197536624051
1888	26279736 30 1925120 1925120 8.419981513445 8.419981513445 1 0 0 0 0
1889	26279766 30 1925120 1925120 8.419981513445 8.419981513445 1 0 0 0 0
1890	26279796 33 1925120 1925120 8.419981513445 8.419981513445 1 0.02 0.02 0.02 0.0004
1891	26279829 30 1925120 1925120 8.419981513445 8.419981513445 1 0 0 0 0
1892	26279859 44 1925120 1925120 8.419981513445 8.419981513445 1 4.3847772088007 4.3847772088007 4.3847772088007 19.226271170818
1893	26279903 30 1925120 1925120 8.419981513445 8.419981513445 1 0 0 0 0
1894	26279933 30 1925120 1925120 8.419981513445 8.419981513445 1 0 0 0 0
1895	26279963 33 1925120 1925120 8.419981513445 8.419981513445 1 0.02 0.02 0.02 0.0004
1896	26279996 45 1925120 1925120 8.419981513445 8.419981513445 1 0.31980906921241 0.31980906921241 0.31980906921241 0.10227784075051
1897	26280041 44 1925120 1925120 8.419981513445 8.419981513445 1 1.3609903042161 1.3609903042161 1.3609903042161 1.8522946081702
1898	26280085 30 1925120 1925120 8.419981513445 8.419981513445 1 0 0 0 0

