version 3
run simpleBOLATest-0-20230507-14:40:34-39265
attr configname simpleBOLATest
attr datetime 20230507-14:40:34
attr datetimef 20230507-144034
attr experiment simpleBOLATest
attr inifile BOLASetup.ini
attr iterationvars ""
attr iterationvarsd ""
attr iterationvarsf ""
attr measurement ""
attr network simpleBOLASetup
attr processid 39265
attr repetition 0
attr replication #0
attr resultdir results
attr runnumber 0
attr seedset 0
config image-path ../../inet/images
config description "All five applications - base configuration without any resource allocation"
config network simpleBOLASetup
config sim-time-limit 300s
config output-vector-file results/simpleBOLATest/simpleBOLATest-0.vec
config output-scalar-file results/simpleBOLATest/simpleBOLATest-0.sca
config **.crcMode "\"computed\""
config *.hostVID[*].numApps 1
config **.hostVID[*].hasTcp true
config **.hostVID[*].app[0].typename improved5gns.apps.TCPVideoStreamCliAppV2lite
config **.hostVID[*].app[0].localAddress "\"\""
config **.hostVID[*].app[0].localPort -1
config **.hostVID[*].app[0].connectAddress "\"serverVID\""
config **.hostVID[*].app[0].connectPort 1042
config **.hostVID[*].app[0].dataTransferMode "\"object\""
config **.hostVID[*].app[0].startTime 0.1s
config **.hostVID[*].app[0].stopTime -1s
config **.hostVID[*].app[0].idleInterval 1s
config **.hostVID[*].app[0].requestLength 200B
config **.hostVID[*].app[0].reconnectInterval 1s
config **.hostVID[*].app[0].numRequestsPerSession 1
config **.hostVID[*].app[0].thinkTime 1s
config **.hostVID[*].app[0].video_resolution "\"360 480 720 1080\""
config **.hostVID[*].app[0].manifest_size 100000
config **.hostVID[*].app[0].video_buffer_max_length 25s
config **.hostVID[*].app[0].video_duration 300s
config **.hostVID[*].app[0].segment_length 3s
config **.hostVID[*].app[0].useFlexibleBitrate "\"flexible\""
config *.serverVID.hasTcp true
config *.serverVID.numApps 1
config *.serverVID.app[0].typename TcpGenericServerApp
config *.serverVID.app[0].localAddress "\"\""
config *.serverVID.app[0].localPort 1042
config *.serverVID.app[0].replyDelay 0s
config *.serverVID.app[0].stopOperationExtraTime -1s
config *.serverVID.app[0].stopOperationTimeout 2s
config sim-time-limit 250s
config num-rngs 1
config seed-0-mt 5
config output-scalar-file-append false
config record-eventlog false
config *.visualizer.*.interfaceTableVisualizer.displayInterfaceTables true
config **.tcp.typename Tcp
config **.udp.typename Udp
config **.packetCapacity 500
config **.tcp.advertisedWindow 65535
config **.tcp.delayedAcksEnabled false
config **.tcp.nagleEnabled true
config **.tcp.limitedTransmitEnabled false
config **.tcp.increasedIWEnabled false
config **.tcp.sackSupport false
config **.tcp.windowScalingSupport false
config **.tcp.timestampSupport false
config **.tcp.mss 1452
config **.tcp.tcpAlgorithmClass "\"TcpReno\""
config **.tcp.*.*.vector-recording true
config **.tcp.*.rtt.result-recording-modes +vector
config **.tcp.*.*.result-recording-modes -vector
config **.host*.app*.*.vector-recording true
config **.ppp.*xPk*.vector-recording true
config **.vector-recording false

par simpleBOLASetup.router0.pppg$o[0].conn1 typename "\"improved5gns.simulations.simpleBOLASetup.C\""
par simpleBOLASetup.router0.pppg$o[0].conn1 disabled false
attr mutable ""
par simpleBOLASetup.router0.pppg$o[0].conn1 delay 1e-07s
attr mutable ""
attr unit s
par simpleBOLASetup.router0.pppg$o[0].conn1 datarate 1e+09bps
attr mutable ""
attr unit bps
par simpleBOLASetup.router0.pppg$o[0].conn1 ber 0
attr mutable ""
par simpleBOLASetup.router0.pppg$o[0].conn1 per 0
attr mutable ""
par simpleBOLASetup.router1.pppg$o[0].conn1 typename "\"improved5gns.simulations.simpleBOLASetup.C\""
par simpleBOLASetup.router1.pppg$o[0].conn1 disabled false
attr mutable ""
par simpleBOLASetup.router1.pppg$o[0].conn1 delay 1e-07s
attr mutable ""
attr unit s
par simpleBOLASetup.router1.pppg$o[0].conn1 datarate 1e+09bps
attr mutable ""
attr unit bps
par simpleBOLASetup.router1.pppg$o[0].conn1 ber 0
attr mutable ""
par simpleBOLASetup.router1.pppg$o[0].conn1 per 0
attr mutable ""
par simpleBOLASetup.hostVID[0].pppg$o[0].channel typename "\"improved5gns.simulations.simpleBOLASetup.C\""
par simpleBOLASetup.hostVID[0].pppg$o[0].channel disabled false
attr mutable ""
par simpleBOLASetup.hostVID[0].pppg$o[0].channel delay 1e-07s
attr mutable ""
attr unit s
par simpleBOLASetup.hostVID[0].pppg$o[0].channel datarate 1.5e+06bps
attr mutable ""
attr unit bps
par simpleBOLASetup.hostVID[0].pppg$o[0].channel ber 0
attr mutable ""
par simpleBOLASetup.hostVID[0].pppg$o[0].channel per 0
attr mutable ""
par simpleBOLASetup.router0.pppg$o[1].channel typename "\"improved5gns.simulations.simpleBOLASetup.C\""
par simpleBOLASetup.router0.pppg$o[1].channel disabled false
attr mutable ""
par simpleBOLASetup.router0.pppg$o[1].channel delay 1e-07s
attr mutable ""
attr unit s
par simpleBOLASetup.router0.pppg$o[1].channel datarate 1.5e+06bps
attr mutable ""
attr unit bps
par simpleBOLASetup.router0.pppg$o[1].channel ber 0
attr mutable ""
par simpleBOLASetup.router0.pppg$o[1].channel per 0
attr mutable ""
par simpleBOLASetup.serverVID.pppg$o[0].channel typename "\"improved5gns.simulations.simpleBOLASetup.C\""
par simpleBOLASetup.serverVID.pppg$o[0].channel disabled false
attr mutable ""
par simpleBOLASetup.serverVID.pppg$o[0].channel delay 1e-07s
attr mutable ""
attr unit s
par simpleBOLASetup.serverVID.pppg$o[0].channel datarate 1.5e+06bps
attr mutable ""
attr unit bps
par simpleBOLASetup.serverVID.pppg$o[0].channel ber 0
attr mutable ""
par simpleBOLASetup.serverVID.pppg$o[0].channel per 0
attr mutable ""
par simpleBOLASetup.router1.pppg$o[1].channel typename "\"improved5gns.simulations.simpleBOLASetup.C\""
par simpleBOLASetup.router1.pppg$o[1].channel disabled false
attr mutable ""
par simpleBOLASetup.router1.pppg$o[1].channel delay 1e-07s
attr mutable ""
attr unit s
par simpleBOLASetup.router1.pppg$o[1].channel datarate 1.5e+06bps
attr mutable ""
attr unit bps
par simpleBOLASetup.router1.pppg$o[1].channel ber 0
attr mutable ""
par simpleBOLASetup.router1.pppg$o[1].channel per 0
attr mutable ""
par simpleBOLASetup.configurator typename "\"inet.networklayer.configurator.ipv4.Ipv4NetworkConfigurator\""
par simpleBOLASetup.configurator minLinkWeight 0.001
par simpleBOLASetup.configurator configureIsolatedNetworksSeparatly false
par simpleBOLASetup.configurator config "<config>...</config> at content:1"
par simpleBOLASetup.configurator assignAddresses true
par simpleBOLASetup.configurator assignUniqueAddresses true
par simpleBOLASetup.configurator assignDisjunctSubnetAddresses true
par simpleBOLASetup.configurator addStaticRoutes true
par simpleBOLASetup.configurator addDefaultRoutes true
par simpleBOLASetup.configurator addSubnetRoutes true
par simpleBOLASetup.configurator addDirectRoutes true
par simpleBOLASetup.configurator optimizeRoutes true
par simpleBOLASetup.configurator dumpTopology false
par simpleBOLASetup.configurator dumpLinks false
par simpleBOLASetup.configurator dumpAddresses false
par simpleBOLASetup.configurator dumpRoutes false
par simpleBOLASetup.configurator dumpConfig "\"\""
par simpleBOLASetup.hostVID[0].pppg$i[0].channel typename "\"ned.IdealChannel\""
par simpleBOLASetup.hostVID[0].ppp[0].phys$o.channel typename "\"ned.IdealChannel\""
par simpleBOLASetup.hostVID[0].interfaceTable typename "\"inet.networklayer.common.InterfaceTable\""
par simpleBOLASetup.hostVID[0].interfaceTable displayAddresses false
par simpleBOLASetup.hostVID[0].cb typename "\"inet.common.MessageDispatcher\""
par simpleBOLASetup.hostVID[0].cb displayStringTextFormat "\"processed %p pk (%l)\""
par simpleBOLASetup.hostVID[0].cb forwardServiceRegistration true
par simpleBOLASetup.hostVID[0].cb forwardProtocolRegistration true
par simpleBOLASetup.hostVID[0].bl typename "\"inet.common.MessageDispatcher\""
par simpleBOLASetup.hostVID[0].bl displayStringTextFormat "\"processed %p pk (%l)\""
par simpleBOLASetup.hostVID[0].bl forwardServiceRegistration true
par simpleBOLASetup.hostVID[0].bl forwardProtocolRegistration true
par simpleBOLASetup.hostVID[0].li typename "\"inet.common.MessageDispatcher\""
par simpleBOLASetup.hostVID[0].li displayStringTextFormat "\"processed %p pk (%l)\""
par simpleBOLASetup.hostVID[0].li forwardServiceRegistration true
par simpleBOLASetup.hostVID[0].li forwardProtocolRegistration true
par simpleBOLASetup.hostVID[0].lo[0].upperLayerIn.channel typename "\"ned.IdealChannel\""
par simpleBOLASetup.hostVID[0].lo[0].lo.upperLayerOut.channel typename "\"ned.IdealChannel\""
par simpleBOLASetup.hostVID[0].lo[0].lo typename "\"inet.linklayer.loopback.Loopback\""
par simpleBOLASetup.hostVID[0].lo[0].lo interfaceTableModule "\"simpleBOLASetup.hostVID[0].interfaceTable\""
par simpleBOLASetup.hostVID[0].lo[0].lo mtu 4470B
attr unit B
scalar simpleBOLASetup.hostVID[0].lo[0].lo rcvdPkFromHl:count 0
attr interpolationmode none
attr recordingmode count
attr source packetReceivedFromUpper
attr title "packets received from higher layer, count"
scalar simpleBOLASetup.hostVID[0].lo[0].lo rcvdPkFromHl:sum(packetBytes) 0
attr interpolationmode none
attr recordingmode sum(packetBytes)
attr source packetReceivedFromUpper
attr title "packets received from higher layer, sum(packetBytes)"
scalar simpleBOLASetup.hostVID[0].lo[0].lo passedUpPk:count 0
attr interpolationmode none
attr recordingmode count
attr source packetSentToUpper
attr title "packets passed to higher layer, count"
scalar simpleBOLASetup.hostVID[0].lo[0].lo passedUpPk:sum(packetBytes) 0
attr interpolationmode none
attr recordingmode sum(packetBytes)
attr source packetSentToUpper
attr title "packets passed to higher layer, sum(packetBytes)"
par simpleBOLASetup.hostVID[0].lo[0] typename "\"inet.linklayer.loopback.LoopbackInterface\""
par simpleBOLASetup.hostVID[0].lo[0] displayStringTextFormat "\"%a (%i)\\n%m\""
par simpleBOLASetup.hostVID[0].lo[0] recordPcap false
par simpleBOLASetup.hostVID[0].lo[0] numPcapRecorders 0
par simpleBOLASetup.hostVID[0].lo[0] interfaceTableModule "\"simpleBOLASetup.hostVID[0].interfaceTable\""
scalar simpleBOLASetup.hostVID[0].lo[0] packetDropInterfaceDown:count 0
attr interpolationmode none
attr recordingmode count
attr source packetDropReasonIsInterfaceDown(packetDropped)
attr title "packet drops: interface down, count"
scalar simpleBOLASetup.hostVID[0].lo[0] packetDropInterfaceDown:sum(packetBytes) 0
attr interpolationmode none
attr recordingmode sum(packetBytes)
attr source packetDropReasonIsInterfaceDown(packetDropped)
attr title "packet drops: interface down, sum(packetBytes)"
scalar simpleBOLASetup.hostVID[0].lo[0] packetDropNoCarrier:count 0
attr interpolationmode none
attr recordingmode count
attr source packetDropReasonIsNoCarrier(packetDropped)
attr title "packet drops: no carrier, count"
scalar simpleBOLASetup.hostVID[0].lo[0] packetDropNoCarrier:sum(packetBytes) 0
attr interpolationmode none
attr recordingmode sum(packetBytes)
attr source packetDropReasonIsNoCarrier(packetDropped)
attr title "packet drops: no carrier, sum(packetBytes)"
par simpleBOLASetup.hostVID[0].ppp[0].phys$i.channel typename "\"ned.IdealChannel\""
par simpleBOLASetup.hostVID[0].ppp[0].ppp.phys$o.channel typename "\"ned.IdealChannel\""
par simpleBOLASetup.hostVID[0].ppp[0].ppp.upperLayerOut.channel typename "\"ned.IdealChannel\""
par simpleBOLASetup.hostVID[0].ppp[0].upperLayerIn.channel typename "\"ned.IdealChannel\""
par simpleBOLASetup.hostVID[0].ppp[0].queue typename "\"inet.queueing.queue.DropTailQueue\""
par simpleBOLASetup.hostVID[0].ppp[0].queue displayStringTextFormat "\"contains %p pk (%l) pushed %u\\npulled %o removed %r dropped %d\""
par simpleBOLASetup.hostVID[0].ppp[0].queue packetCapacity 500
par simpleBOLASetup.hostVID[0].ppp[0].queue dataCapacity -1b
attr unit b
par simpleBOLASetup.hostVID[0].ppp[0].queue dropperClass "\"inet::queueing::PacketAtCollectionEndDropper\""
par simpleBOLASetup.hostVID[0].ppp[0].queue comparatorClass "\"\""
par simpleBOLASetup.hostVID[0].ppp[0].queue bufferModule "\"\""
scalar simpleBOLASetup.hostVID[0].ppp[0].queue queueLength:last 0
attr autoWarmupFilter false
attr interpolationmode sample-hold
attr recordingmode last
attr source "warmup(atomic(constant0(packetPushEnded) + count(packetPushStarted) - count(packetPulled) - count(packetRemoved) - count(packetDropped)))"
attr title "queue length, last"
attr unit pk
scalar simpleBOLASetup.hostVID[0].ppp[0].queue queueLength:max 1
attr autoWarmupFilter false
attr interpolationmode sample-hold
attr recordingmode max
attr source "warmup(atomic(constant0(packetPushEnded) + count(packetPushStarted) - count(packetPulled) - count(packetRemoved) - count(packetDropped)))"
attr title "queue length, max"
attr unit pk
scalar simpleBOLASetup.hostVID[0].ppp[0].queue queueLength:timeavg 8.5255085141714e-05
attr autoWarmupFilter false
attr interpolationmode sample-hold
attr recordingmode timeavg
attr source "warmup(atomic(constant0(packetPushEnded) + count(packetPushStarted) - count(packetPulled) - count(packetRemoved) - count(packetDropped)))"
attr title "queue length, timeavg"
attr unit pk
scalar simpleBOLASetup.hostVID[0].ppp[0].queue queueBitLength:last 0
attr autoWarmupFilter false
attr interpolationmode sample-hold
attr recordingmode last
attr source "warmup(atomic(constant0(packetPushEnded) + sum(packetLength(packetPushStarted)) - sum(packetLength(packetPulled)) - sum(packetLength(packetRemoved)) - sum(packetLength(packetDropped))))"
attr title "queue bit length, last"
attr unit b
scalar simpleBOLASetup.hostVID[0].ppp[0].queue queueBitLength:max 1920
attr autoWarmupFilter false
attr interpolationmode sample-hold
attr recordingmode max
attr source "warmup(atomic(constant0(packetPushEnded) + sum(packetLength(packetPushStarted)) - sum(packetLength(packetPulled)) - sum(packetLength(packetRemoved)) - sum(packetLength(packetDropped))))"
attr title "queue bit length, max"
attr unit b
scalar simpleBOLASetup.hostVID[0].ppp[0].queue queueBitLength:timeavg 0.1623524288032
attr autoWarmupFilter false
attr interpolationmode sample-hold
attr recordingmode timeavg
attr source "warmup(atomic(constant0(packetPushEnded) + sum(packetLength(packetPushStarted)) - sum(packetLength(packetPulled)) - sum(packetLength(packetRemoved)) - sum(packetLength(packetDropped))))"
attr title "queue bit length, timeavg"
attr unit b
statistic simpleBOLASetup.hostVID[0].ppp[0].queue queueingTime:histogram
field count 35254
field mean 7.2525103630794e-07
field stddev 1.3463855797109e-05
field min 0
field max 0.000250666667
field sum 0.025568000034
field sqrsum 6.4090453503787e-06
attr interpolationmode none
attr recordingmode histogram
attr source queueingTime(packetPulled)
attr title "queueing times"
attr unit s
bin	-inf	0
bin	0	35152
bin	5e-06	0
bin	1e-05	0
bin	1.5e-05	0
bin	2e-05	0
bin	2.5e-05	0
bin	3e-05	0
bin	3.5e-05	0
bin	4e-05	0
bin	4.5e-05	0
bin	5e-05	0
bin	5.5e-05	0
bin	6e-05	0
bin	6.5e-05	0
bin	7e-05	0
bin	7.5e-05	0
bin	8e-05	0
bin	8.5e-05	0
bin	9e-05	0
bin	9.5e-05	0
bin	0.0001	0
bin	0.000105	0
bin	0.00011	0
bin	0.000115	0
bin	0.00012	0
bin	0.000125	0
bin	0.00013	0
bin	0.000135	0
bin	0.00014	0
bin	0.000145	0
bin	0.00015	0
bin	0.000155	0
bin	0.00016	0
bin	0.000165	0
bin	0.00017	0
bin	0.000175	0
bin	0.00018	0
bin	0.000185	0
bin	0.00019	0
bin	0.000195	0
bin	0.0002	0
bin	0.000205	0
bin	0.00021	0
bin	0.000215	0
bin	0.00022	0
bin	0.000225	0
bin	0.00023	0
bin	0.000235	0
bin	0.00024	0
bin	0.000245	0
bin	0.00025	102
bin	0.000255	0
bin	0.00026	0
bin	0.000265	0
bin	0.00027	0
bin	0.000275	0
bin	0.00028	0
bin	0.000285	0
bin	0.00029	0
bin	0.000295	0
bin	0.0003	0
bin	0.000305	0
bin	0.00031	0
bin	0.000315	0
scalar simpleBOLASetup.hostVID[0].ppp[0].queue outgoingPackets:count 35254
attr recordingmode count
attr source packetPulled
attr title "outgoing packets, count"
attr unit pk
scalar simpleBOLASetup.hostVID[0].ppp[0].queue outgoingPacketLengths:sum 11442912
attr interpolationmode none
attr recordingmode sum
attr source packetLength(packetPulled)
attr title "outgoing packet lengths, sum"
attr unit b
statistic simpleBOLASetup.hostVID[0].ppp[0].queue outgoingPacketLengths:histogram
field count 35254
field mean 324.58478470528
field stddev 85.5185328212
field min 320
field max 1920
field sum 11442912
field sqrsum 3972015104
attr interpolationmode none
attr recordingmode histogram
attr source packetLength(packetPulled)
attr title "outgoing packet lengths"
attr unit b
bin	-inf	0
bin	0	0
bin	50	0
bin	100	0
bin	150	0
bin	200	0
bin	250	0
bin	300	35152
bin	350	1
bin	400	0
bin	450	0
bin	500	0
bin	550	0
bin	600	0
bin	650	0
bin	700	0
bin	750	0
bin	800	0
bin	850	0
bin	900	0
bin	950	0
bin	1000	0
bin	1050	0
bin	1100	0
bin	1150	0
bin	1200	0
bin	1250	0
bin	1300	0
bin	1350	0
bin	1400	0
bin	1450	0
bin	1500	0
bin	1550	0
bin	1600	0
bin	1650	0
bin	1700	0
bin	1750	0
bin	1800	0
bin	1850	0
bin	1900	101
bin	1950	0
bin	2000	0
bin	2050	0
bin	2100	0
bin	2150	0
bin	2200	0
bin	2250	0
bin	2300	0
bin	2350	0
statistic simpleBOLASetup.hostVID[0].ppp[0].queue flowQueueingTime:histogram
field count 0
field mean nan
field stddev nan
field min nan
field max nan
field sum 0
field sqrsum 0
attr interpolationmode none
attr recordingmode histogram
attr source queueingTime(demuxFlow(packetPulled))
attr title "flow queueing times"
attr unit s
bin	-inf	0
bin	0	0
bin	1	0
scalar simpleBOLASetup.hostVID[0].ppp[0].queue incomingPackets:count 35254
attr recordingmode count
attr source packetPushStarted
attr title "incoming packets, count"
attr unit pk
scalar simpleBOLASetup.hostVID[0].ppp[0].queue incomingPacketLengths:sum 11442912
attr interpolationmode none
attr recordingmode sum
attr source packetLength(packetPushStarted)
attr title "incoming packet lengths, sum"
attr unit b
statistic simpleBOLASetup.hostVID[0].ppp[0].queue incomingPacketLengths:histogram
field count 35254
field mean 324.58478470528
field stddev 85.5185328212
field min 320
field max 1920
field sum 11442912
field sqrsum 3972015104
attr interpolationmode none
attr recordingmode histogram
attr source packetLength(packetPushStarted)
attr title "incoming packet lengths"
attr unit b
bin	-inf	0
bin	0	0
bin	50	0
bin	100	0
bin	150	0
bin	200	0
bin	250	0
bin	300	35152
bin	350	1
bin	400	0
bin	450	0
bin	500	0
bin	550	0
bin	600	0
bin	650	0
bin	700	0
bin	750	0
bin	800	0
bin	850	0
bin	900	0
bin	950	0
bin	1000	0
bin	1050	0
bin	1100	0
bin	1150	0
bin	1200	0
bin	1250	0
bin	1300	0
bin	1350	0
bin	1400	0
bin	1450	0
bin	1500	0
bin	1550	0
bin	1600	0
bin	1650	0
bin	1700	0
bin	1750	0
bin	1800	0
bin	1850	0
bin	1900	101
bin	1950	0
bin	2000	0
bin	2050	0
bin	2100	0
bin	2150	0
bin	2200	0
bin	2250	0
bin	2300	0
bin	2350	0
scalar simpleBOLASetup.hostVID[0].ppp[0].queue droppedPacketsQueueOverflow:count 0
attr interpolationmode none
attr recordingmode count
attr source packetDropReasonIsQueueOverflow(packetDropped)
attr title "dropped packets: queue overflow, count"
attr unit pk
scalar simpleBOLASetup.hostVID[0].ppp[0].queue droppedPacketLengthsQueueOverflow:sum 0
attr interpolationmode none
attr recordingmode sum
attr source packetLength(packetDropReasonIsQueueOverflow(packetDropped))
attr title "dropped packet lengths: queue overflow, sum"
attr unit b
par simpleBOLASetup.hostVID[0].ppp[0].ppp typename "\"inet.linklayer.ppp.Ppp\""
par simpleBOLASetup.hostVID[0].ppp[0].ppp interfaceTableModule "\"simpleBOLASetup.hostVID[0].interfaceTable\""
par simpleBOLASetup.hostVID[0].ppp[0].ppp displayStringTextFormat "\"rate: %b\\nsent: %s, rcvd: %r\\nqueue: %q, drop: %d\""
par simpleBOLASetup.hostVID[0].ppp[0].ppp sendRawBytes false
par simpleBOLASetup.hostVID[0].ppp[0].ppp mtu 4470B
attr unit B
par simpleBOLASetup.hostVID[0].ppp[0].ppp stopOperationExtraTime -1s
attr unit s
par simpleBOLASetup.hostVID[0].ppp[0].ppp stopOperationTimeout 2s
attr unit s
scalar simpleBOLASetup.hostVID[0].ppp[0].ppp transmissionState:timeavg 0.029815857816734
attr interpolationmode sample-hold
attr recordingmode timeavg
attr source transmissionStateChanged
attr title "tx state, timeavg"
scalar simpleBOLASetup.hostVID[0].ppp[0].ppp rxPkOk:count 35253
attr interpolationmode none
attr recordingmode count
attr source rxPkOk
attr title "packets received OK, count"
scalar simpleBOLASetup.hostVID[0].ppp[0].ppp rxPkOk:sum(packetBytes) 52657895
attr interpolationmode none
attr recordingmode sum(packetBytes)
attr source rxPkOk
attr title "packets received OK, sum(packetBytes)"
scalar simpleBOLASetup.hostVID[0].ppp[0].ppp txPk:count 35254
attr interpolationmode none
attr recordingmode count
attr source packetSentToLower
attr title "packets transmitted, count"
scalar simpleBOLASetup.hostVID[0].ppp[0].ppp txPk:sum(packetBytes) 1677142
attr interpolationmode none
attr recordingmode sum(packetBytes)
attr source packetSentToLower
attr title "packets transmitted, sum(packetBytes)"
scalar simpleBOLASetup.hostVID[0].ppp[0].ppp rcvdPkFromHl:count 35254
attr interpolationmode none
attr recordingmode count
attr source packetReceivedFromUpper
attr title "packets received from higher layer, count"
scalar simpleBOLASetup.hostVID[0].ppp[0].ppp rcvdPkFromHl:sum(packetBytes) 1430364
attr interpolationmode none
attr recordingmode sum(packetBytes)
attr source packetReceivedFromUpper
attr title "packets received from higher layer, sum(packetBytes)"
scalar simpleBOLASetup.hostVID[0].ppp[0].ppp passedUpPk:count 35253
attr interpolationmode none
attr recordingmode count
attr source packetSentToUpper
attr title "packets passed to higher layer, count"
scalar simpleBOLASetup.hostVID[0].ppp[0].ppp passedUpPk:sum(packetBytes) 52411124
attr interpolationmode none
attr recordingmode sum(packetBytes)
attr source packetSentToUpper
attr title "packets passed to higher layer, sum(packetBytes)"
scalar simpleBOLASetup.hostVID[0].ppp[0].ppp packetDropIncorrectlyReceived:count 0
attr interpolationmode none
attr recordingmode count
attr source packetDropReasonIsIncorrectlyReceived(packetDropped)
attr title "packet drop: incorrectly received, count"
scalar simpleBOLASetup.hostVID[0].ppp[0].ppp packetDropIncorrectlyReceived:sum(packetBytes) 0
attr interpolationmode none
attr recordingmode sum(packetBytes)
attr source packetDropReasonIsIncorrectlyReceived(packetDropped)
attr title "packet drop: incorrectly received, sum(packetBytes)"
scalar simpleBOLASetup.hostVID[0].ppp[0].ppp packetDropInterfaceDown:count 0
attr interpolationmode none
attr recordingmode count
attr source packetDropReasonIsInterfaceDown(packetDropped)
attr title "packet drop: interface down, count"
scalar simpleBOLASetup.hostVID[0].ppp[0].ppp packetDropInterfaceDown:sum(packetBytes) 0
attr interpolationmode none
attr recordingmode sum(packetBytes)
attr source packetDropReasonIsInterfaceDown(packetDropped)
attr title "packet drop: interface down, sum(packetBytes)"
par simpleBOLASetup.hostVID[0].ppp[0] typename "\"inet.linklayer.ppp.PppInterface\""
par simpleBOLASetup.hostVID[0].ppp[0] displayStringTextFormat "\"%a (%i)\\n%m\""
par simpleBOLASetup.hostVID[0].ppp[0] recordPcap false
par simpleBOLASetup.hostVID[0].ppp[0] numPcapRecorders 0
par simpleBOLASetup.hostVID[0].ppp[0] interfaceTableModule "\"simpleBOLASetup.hostVID[0].interfaceTable\""
scalar simpleBOLASetup.hostVID[0].ppp[0] packetDropInterfaceDown:count 0
attr interpolationmode none
attr recordingmode count
attr source packetDropReasonIsInterfaceDown(packetDropped)
attr title "packet drops: interface down, count"
scalar simpleBOLASetup.hostVID[0].ppp[0] packetDropInterfaceDown:sum(packetBytes) 0
attr interpolationmode none
attr recordingmode sum(packetBytes)
attr source packetDropReasonIsInterfaceDown(packetDropped)
attr title "packet drops: interface down, sum(packetBytes)"
scalar simpleBOLASetup.hostVID[0].ppp[0] packetDropNoCarrier:count 0
attr interpolationmode none
attr recordingmode count
attr source packetDropReasonIsNoCarrier(packetDropped)
attr title "packet drops: no carrier, count"
scalar simpleBOLASetup.hostVID[0].ppp[0] packetDropNoCarrier:sum(packetBytes) 0
attr interpolationmode none
attr recordingmode sum(packetBytes)
attr source packetDropReasonIsNoCarrier(packetDropped)
attr title "packet drops: no carrier, sum(packetBytes)"
par simpleBOLASetup.hostVID[0].ipv4.transportIn.channel typename "\"ned.IdealChannel\""
par simpleBOLASetup.hostVID[0].ipv4.up.out[0].channel typename "\"ned.IdealChannel\""
par simpleBOLASetup.hostVID[0].ipv4.lp.out[2].channel typename "\"ned.IdealChannel\""
par simpleBOLASetup.hostVID[0].ipv4.ifIn.channel typename "\"ned.IdealChannel\""
par simpleBOLASetup.hostVID[0].ipv4.configurator typename "\"inet.networklayer.configurator.ipv4.Ipv4NodeConfigurator\""
par simpleBOLASetup.hostVID[0].ipv4.configurator interfaceTableModule "\"simpleBOLASetup.hostVID[0].interfaceTable\""
par simpleBOLASetup.hostVID[0].ipv4.configurator routingTableModule "\"simpleBOLASetup.hostVID[0].ipv4.routingTable\""
par simpleBOLASetup.hostVID[0].ipv4.configurator networkConfiguratorModule "\"configurator\""
par simpleBOLASetup.hostVID[0].ipv4.configurator configureRoutingTable true
par simpleBOLASetup.hostVID[0].ipv4.routingTable typename "\"inet.networklayer.ipv4.Ipv4RoutingTable\""
par simpleBOLASetup.hostVID[0].ipv4.routingTable interfaceTableModule "\"simpleBOLASetup.hostVID[0].interfaceTable\""
par simpleBOLASetup.hostVID[0].ipv4.routingTable routerId "\"auto\""
par simpleBOLASetup.hostVID[0].ipv4.routingTable netmaskRoutes "\"*\""
par simpleBOLASetup.hostVID[0].ipv4.routingTable forwarding false
par simpleBOLASetup.hostVID[0].ipv4.routingTable multicastForwarding false
par simpleBOLASetup.hostVID[0].ipv4.routingTable useAdminDist false
par simpleBOLASetup.hostVID[0].ipv4.routingTable routingFile "\"\""
par simpleBOLASetup.hostVID[0].ipv4.natTable typename "\"inet.networklayer.ipv4.Ipv4NatTable\""
par simpleBOLASetup.hostVID[0].ipv4.natTable networkProtocolModule "\"^.ip\""
par simpleBOLASetup.hostVID[0].ipv4.natTable config "<config/> at content:1"
par simpleBOLASetup.hostVID[0].ipv4.up typename "\"inet.common.MessageDispatcher\""
par simpleBOLASetup.hostVID[0].ipv4.up displayStringTextFormat "\"processed %p pk (%l)\""
par simpleBOLASetup.hostVID[0].ipv4.up forwardServiceRegistration true
par simpleBOLASetup.hostVID[0].ipv4.up forwardProtocolRegistration true
par simpleBOLASetup.hostVID[0].ipv4.igmp typename "\"inet.networklayer.ipv4.Igmpv2\""
par simpleBOLASetup.hostVID[0].ipv4.igmp interfaceTableModule "\"simpleBOLASetup.hostVID[0].interfaceTable\""
par simpleBOLASetup.hostVID[0].ipv4.igmp routingTableModule "\"simpleBOLASetup.hostVID[0].ipv4.routingTable\""
par simpleBOLASetup.hostVID[0].ipv4.igmp crcMode "\"computed\""
attr enum declared,computed
par simpleBOLASetup.hostVID[0].ipv4.igmp enabled true
par simpleBOLASetup.hostVID[0].ipv4.igmp robustnessVariable 2
par simpleBOLASetup.hostVID[0].ipv4.igmp queryInterval 125s
attr unit s
par simpleBOLASetup.hostVID[0].ipv4.igmp queryResponseInterval 10s
attr unit s
par simpleBOLASetup.hostVID[0].ipv4.igmp groupMembershipInterval 260s
attr unit s
par simpleBOLASetup.hostVID[0].ipv4.igmp otherQuerierPresentInterval 255s
attr unit s
par simpleBOLASetup.hostVID[0].ipv4.igmp startupQueryInterval 31.25s
attr unit s
par simpleBOLASetup.hostVID[0].ipv4.igmp startupQueryCount 2
par simpleBOLASetup.hostVID[0].ipv4.igmp lastMemberQueryInterval 1s
attr unit s
par simpleBOLASetup.hostVID[0].ipv4.igmp lastMemberQueryCount 2
par simpleBOLASetup.hostVID[0].ipv4.igmp unsolicitedReportInterval 10s
attr unit s
par simpleBOLASetup.hostVID[0].ipv4.icmp typename "\"inet.networklayer.ipv4.Icmp\""
par simpleBOLASetup.hostVID[0].ipv4.icmp interfaceTableModule "\"simpleBOLASetup.hostVID[0].interfaceTable\""
par simpleBOLASetup.hostVID[0].ipv4.icmp routingTableModule "\"simpleBOLASetup.hostVID[0].ipv4.routingTable\""
par simpleBOLASetup.hostVID[0].ipv4.icmp crcMode "\"computed\""
attr enum declared,computed
attr mutable ""
par simpleBOLASetup.hostVID[0].ipv4.icmp quoteLength 8B
attr mutable ""
attr unit B
par simpleBOLASetup.hostVID[0].ipv4.mp typename "\"inet.common.MessageDispatcher\""
par simpleBOLASetup.hostVID[0].ipv4.mp displayStringTextFormat "\"processed %p pk (%l)\""
par simpleBOLASetup.hostVID[0].ipv4.mp forwardServiceRegistration true
par simpleBOLASetup.hostVID[0].ipv4.mp forwardProtocolRegistration true
par simpleBOLASetup.hostVID[0].ipv4.ip typename "\"inet.networklayer.ipv4.Ipv4\""
par simpleBOLASetup.hostVID[0].ipv4.ip interfaceTableModule "\"simpleBOLASetup.hostVID[0].interfaceTable\""
par simpleBOLASetup.hostVID[0].ipv4.ip routingTableModule "\"simpleBOLASetup.hostVID[0].ipv4.routingTable\""
par simpleBOLASetup.hostVID[0].ipv4.ip arpModule "\"simpleBOLASetup.hostVID[0].ipv4.arp\""
par simpleBOLASetup.hostVID[0].ipv4.ip icmpModule "\"simpleBOLASetup.hostVID[0].ipv4.icmp\""
par simpleBOLASetup.hostVID[0].ipv4.ip crcMode "\"computed\""
attr enum declared,computed
par simpleBOLASetup.hostVID[0].ipv4.ip timeToLive 32
par simpleBOLASetup.hostVID[0].ipv4.ip multicastTimeToLive 32
par simpleBOLASetup.hostVID[0].ipv4.ip fragmentTimeout 60s
attr unit s
par simpleBOLASetup.hostVID[0].ipv4.ip limitedBroadcast false
par simpleBOLASetup.hostVID[0].ipv4.ip directBroadcastInterfaces "\"\""
scalar simpleBOLASetup.hostVID[0].ipv4.ip packetDropAddressResolutionFailed:count 0
attr interpolationmode none
attr recordingmode count
attr source packetDropReasonIsAddressResolutionFailed(packetDropped)
attr title "packet drop: address resolution failed, count"
scalar simpleBOLASetup.hostVID[0].ipv4.ip packetDropAddressResolutionFailed:sum(packetBytes) 0
attr interpolationmode none
attr recordingmode sum(packetBytes)
attr source packetDropReasonIsAddressResolutionFailed(packetDropped)
attr title "packet drop: address resolution failed, sum(packetBytes)"
scalar simpleBOLASetup.hostVID[0].ipv4.ip packetDropHopLimitReached:count 0
attr interpolationmode none
attr recordingmode count
attr source packetDropReasonIsHopLimitReached(packetDropped)
attr title "packet drop: hop limit reached, count"
scalar simpleBOLASetup.hostVID[0].ipv4.ip packetDropHopLimitReached:sum(packetBytes) 0
attr interpolationmode none
attr recordingmode sum(packetBytes)
attr source packetDropReasonIsHopLimitReached(packetDropped)
attr title "packet drop: hop limit reached, sum(packetBytes)"
scalar simpleBOLASetup.hostVID[0].ipv4.ip packetDropForwardingDisabled:count 0
attr interpolationmode none
attr recordingmode count
attr source packetDropReasonIsForwardingDisabled(packetDropped)
attr title "packet drop: forwarding disabled, count"
scalar simpleBOLASetup.hostVID[0].ipv4.ip packetDropForwardingDisabled:sum(packetBytes) 0
attr interpolationmode none
attr recordingmode sum(packetBytes)
attr source packetDropReasonIsForwardingDisabled(packetDropped)
attr title "packet drop: forwarding disabled, sum(packetBytes)"
scalar simpleBOLASetup.hostVID[0].ipv4.ip packetDropNoInterfaceFound:count 0
attr interpolationmode none
attr recordingmode count
attr source packetDropReasonIsNoInterfaceFound(packetDropped)
attr title "packet drop: no interface found, count"
scalar simpleBOLASetup.hostVID[0].ipv4.ip packetDropNoInterfaceFound:sum(packetBytes) 0
attr interpolationmode none
attr recordingmode sum(packetBytes)
attr source packetDropReasonIsNoInterfaceFound(packetDropped)
attr title "packet drop: no interface found, sum(packetBytes)"
scalar simpleBOLASetup.hostVID[0].ipv4.ip packetDropNoRouteFound:count 0
attr interpolationmode none
attr recordingmode count
attr source packetDropReasonIsNoRouteFound(packetDropped)
attr title "packet drop: no route found, count"
scalar simpleBOLASetup.hostVID[0].ipv4.ip packetDropNoRouteFound:sum(packetBytes) 0
attr interpolationmode none
attr recordingmode sum(packetBytes)
attr source packetDropReasonIsNoRouteFound(packetDropped)
attr title "packet drop: no route found, sum(packetBytes)"
scalar simpleBOLASetup.hostVID[0].ipv4.ip packetDropUndefined:count 0
attr interpolationmode none
attr recordingmode count
attr source packetDropReasonIsUndefined(packetDropped)
attr title "packet drop: undefined, count"
scalar simpleBOLASetup.hostVID[0].ipv4.ip packetDropUndefined:sum(packetBytes) 0
attr interpolationmode none
attr recordingmode sum(packetBytes)
attr source packetDropReasonIsUndefined(packetDropped)
attr title "packet drop: undefined, sum(packetBytes)"
par simpleBOLASetup.hostVID[0].ipv4.arp typename "\"inet.networklayer.arp.ipv4.Arp\""
par simpleBOLASetup.hostVID[0].ipv4.arp interfaceTableModule "\"simpleBOLASetup.hostVID[0].interfaceTable\""
par simpleBOLASetup.hostVID[0].ipv4.arp routingTableModule "\"simpleBOLASetup.hostVID[0].ipv4.routingTable\""
par simpleBOLASetup.hostVID[0].ipv4.arp retryTimeout 1s
attr unit s
par simpleBOLASetup.hostVID[0].ipv4.arp retryCount 3
par simpleBOLASetup.hostVID[0].ipv4.arp cacheTimeout 120s
attr unit s
par simpleBOLASetup.hostVID[0].ipv4.arp proxyArpInterfaces "\"\""
scalar simpleBOLASetup.hostVID[0].ipv4.arp arpResolutionFailed:count 0
attr recordingmode count
attr title "ARP failed resolutions, count"
scalar simpleBOLASetup.hostVID[0].ipv4.arp arpResolutionCompleted:count 0
attr recordingmode count
attr title "ARP completed resolutions, count"
scalar simpleBOLASetup.hostVID[0].ipv4.arp arpResolutionInitiated:count 0
attr recordingmode count
attr title "ARP initiated resolutions, count"
scalar simpleBOLASetup.hostVID[0].ipv4.arp arpReplySent:count 0
attr recordingmode count
attr source arpReplySent
attr title "ARP replies sent, count"
scalar simpleBOLASetup.hostVID[0].ipv4.arp arpReplySent:sum(packetBytes) 0
attr recordingmode sum(packetBytes)
attr source arpReplySent
attr title "ARP replies sent, sum(packetBytes)"
scalar simpleBOLASetup.hostVID[0].ipv4.arp arpRequestSent:count 0
attr recordingmode count
attr source arpRequestSent
attr title "ARP request sent, count"
scalar simpleBOLASetup.hostVID[0].ipv4.arp arpRequestSent:sum(packetBytes) 0
attr recordingmode sum(packetBytes)
attr source arpRequestSent
attr title "ARP request sent, sum(packetBytes)"
par simpleBOLASetup.hostVID[0].ipv4.lp typename "\"inet.common.MessageDispatcher\""
par simpleBOLASetup.hostVID[0].ipv4.lp displayStringTextFormat "\"processed %p pk (%l)\""
par simpleBOLASetup.hostVID[0].ipv4.lp forwardServiceRegistration true
par simpleBOLASetup.hostVID[0].ipv4.lp forwardProtocolRegistration true
par simpleBOLASetup.hostVID[0].ipv4 typename "\"inet.networklayer.ipv4.Ipv4NetworkLayer\""
par simpleBOLASetup.hostVID[0].ipv4 forwarding false
par simpleBOLASetup.hostVID[0].ipv4 multicastForwarding false
par simpleBOLASetup.hostVID[0].ipv4 interfaceTableModule "\"simpleBOLASetup.hostVID[0].interfaceTable\""
par simpleBOLASetup.hostVID[0].ipv4 displayStringTextFormat "\"%i\""
par simpleBOLASetup.hostVID[0].nl typename "\"inet.common.MessageDispatcher\""
par simpleBOLASetup.hostVID[0].nl displayStringTextFormat "\"processed %p pk (%l)\""
par simpleBOLASetup.hostVID[0].nl forwardServiceRegistration true
par simpleBOLASetup.hostVID[0].nl forwardProtocolRegistration true
par simpleBOLASetup.hostVID[0].udp.crcInsertion typename "\"inet.transportlayer.udp.UdpCrcInsertionHook\""
par simpleBOLASetup.hostVID[0].udp typename "\"inet.transportlayer.udp.Udp\""
par simpleBOLASetup.hostVID[0].udp interfaceTableModule "\"simpleBOLASetup.hostVID[0].interfaceTable\""
par simpleBOLASetup.hostVID[0].udp icmpModule "\"^.ipv4.icmp\""
par simpleBOLASetup.hostVID[0].udp icmpv6Module "\"^.ipv6.icmpv6\""
par simpleBOLASetup.hostVID[0].udp crcMode "\"computed\""
attr enum disabled,declared,computed
par simpleBOLASetup.hostVID[0].udp defaultMulticastLoop true
scalar simpleBOLASetup.hostVID[0].udp packetReceived:count 0
attr interpolationmode none
attr recordingmode count
attr source packetReceived
attr title "packets received, count"
scalar simpleBOLASetup.hostVID[0].udp packetReceived:sum(packetBytes) 0
attr interpolationmode none
attr recordingmode sum(packetBytes)
attr source packetReceived
attr title "packets received, sum(packetBytes)"
scalar simpleBOLASetup.hostVID[0].udp packetSent:count 0
attr interpolationmode none
attr recordingmode count
attr source packetSent
attr title "packets sent, count"
scalar simpleBOLASetup.hostVID[0].udp packetSent:sum(packetBytes) 0
attr interpolationmode none
attr recordingmode sum(packetBytes)
attr source packetSent
attr title "packets sent, sum(packetBytes)"
scalar simpleBOLASetup.hostVID[0].udp passedUpPk:count 0
attr interpolationmode none
attr recordingmode count
attr source packetSentToUpper
attr title "packets passed up, count"
scalar simpleBOLASetup.hostVID[0].udp droppedPkWrongPort:count 0
attr interpolationmode none
attr recordingmode count
attr source packetDropReasonIsNoPortFound(packetDropped)
attr title "packets dropped (wrong port), count"
scalar simpleBOLASetup.hostVID[0].udp droppedPkBadChecksum:count 0
attr interpolationmode none
attr recordingmode count
attr source packetDropReasonIsIncorrectlyReceived(packetDropped)
attr title "packets dropped (checksum error), count"
par simpleBOLASetup.hostVID[0].tcp.crcInsertion typename "\"inet.transportlayer.tcp_common.TcpCrcInsertionHook\""
par simpleBOLASetup.hostVID[0].tcp.conn-8 typename "\"inet.transportlayer.tcp.TcpConnection\""
par simpleBOLASetup.hostVID[0].tcp typename "\"inet.transportlayer.tcp.Tcp\""
par simpleBOLASetup.hostVID[0].tcp crcMode "\"computed\""
attr enum declared,computed
par simpleBOLASetup.hostVID[0].tcp advertisedWindow 65535
par simpleBOLASetup.hostVID[0].tcp delayedAcksEnabled false
par simpleBOLASetup.hostVID[0].tcp nagleEnabled true
par simpleBOLASetup.hostVID[0].tcp limitedTransmitEnabled false
par simpleBOLASetup.hostVID[0].tcp increasedIWEnabled false
par simpleBOLASetup.hostVID[0].tcp sackSupport false
par simpleBOLASetup.hostVID[0].tcp windowScalingSupport false
par simpleBOLASetup.hostVID[0].tcp windowScalingFactor -1
par simpleBOLASetup.hostVID[0].tcp timestampSupport false
par simpleBOLASetup.hostVID[0].tcp mss 1452
par simpleBOLASetup.hostVID[0].tcp msl 120s
attr unit s
par simpleBOLASetup.hostVID[0].tcp tcpAlgorithmClass "\"TcpReno\""
attr enum TcpVegas,TcpWestwood,TcpNewReno,TcpReno,TcpTahoe,TcpNoCongestionControl
par simpleBOLASetup.hostVID[0].tcp useDataNotification false
par simpleBOLASetup.hostVID[0].tcp dupthresh 3
par simpleBOLASetup.hostVID[0].tcp initialSsthresh 4294967295
par simpleBOLASetup.hostVID[0].tcp stopOperationExtraTime 0s
attr unit s
par simpleBOLASetup.hostVID[0].tcp stopOperationTimeout 2s
attr unit s
par simpleBOLASetup.hostVID[0].tcp ecnWillingness false
par simpleBOLASetup.hostVID[0].tcp dctcpGamma 0.0625
par simpleBOLASetup.hostVID[0].tn typename "\"inet.common.MessageDispatcher\""
par simpleBOLASetup.hostVID[0].tn displayStringTextFormat "\"processed %p pk (%l)\""
par simpleBOLASetup.hostVID[0].tn forwardServiceRegistration true
par simpleBOLASetup.hostVID[0].tn forwardProtocolRegistration true
par simpleBOLASetup.hostVID[0].app[0] typename "\"improved5gns.apps.TCPVideoStreamCliAppV2lite\""
par simpleBOLASetup.hostVID[0].app[0] localAddress "\"\""
par simpleBOLASetup.hostVID[0].app[0] localPort -1
par simpleBOLASetup.hostVID[0].app[0] connectAddress "\"serverVID\""
par simpleBOLASetup.hostVID[0].app[0] connectPort 1042
par simpleBOLASetup.hostVID[0].app[0] dataTransferMode "\"object\""
attr enum bytecount,object,bytestream
par simpleBOLASetup.hostVID[0].app[0] startTime 0.1s
attr unit s
par simpleBOLASetup.hostVID[0].app[0] stopTime -1s
attr unit s
par simpleBOLASetup.hostVID[0].app[0] idleInterval 1s
attr unit s
par simpleBOLASetup.hostVID[0].app[0] requestLength 200B
attr unit B
par simpleBOLASetup.hostVID[0].app[0] reconnectInterval 1s
attr unit s
par simpleBOLASetup.hostVID[0].app[0] numRequestsPerSession 1
par simpleBOLASetup.hostVID[0].app[0] thinkTime 1s
attr unit s
par simpleBOLASetup.hostVID[0].app[0] timeToLive -1
par simpleBOLASetup.hostVID[0].app[0] dscp -1
par simpleBOLASetup.hostVID[0].app[0] tos -1
par simpleBOLASetup.hostVID[0].app[0] video_resolution "\"360 480 720 1080\""
par simpleBOLASetup.hostVID[0].app[0] manifest_size 100000
attr units byte
par simpleBOLASetup.hostVID[0].app[0] video_buffer_max_length 25s
attr unit s
par simpleBOLASetup.hostVID[0].app[0] video_duration 300s
attr unit s
par simpleBOLASetup.hostVID[0].app[0] segment_length 3s
attr unit s
par simpleBOLASetup.hostVID[0].app[0] useFlexibleBitrate "\"flexible\""
scalar simpleBOLASetup.hostVID[0].app[0] positionY:last nan
attr recordingmode last
attr source positionY
attr title "position of node on Y axis, last"
scalar simpleBOLASetup.hostVID[0].app[0] positionX:last nan
attr recordingmode last
attr source positionX
attr title "position of node on X axis, last"
scalar simpleBOLASetup.hostVID[0].app[0] sentPk:count 0
attr interpolationmode none
attr recordingmode count
attr source sentPk
attr title "packets sent, count"
scalar simpleBOLASetup.hostVID[0].app[0] sentPk:sum(packetBytes) 0
attr interpolationmode none
attr recordingmode sum(packetBytes)
attr source sentPk
attr title "packets sent, sum(packetBytes)"
scalar simpleBOLASetup.hostVID[0].app[0] rcvdPk:count 0
attr interpolationmode none
attr recordingmode count
attr source rcvdPk
attr title "packets received, count"
scalar simpleBOLASetup.hostVID[0].app[0] rcvdPk:sum(packetBytes) 0
attr interpolationmode none
attr recordingmode sum(packetBytes)
attr source rcvdPk
attr title "packets received, sum(packetBytes)"
statistic simpleBOLASetup.hostVID[0].app[0] endToEndDelay:histogram
field count 35149
field mean 1.4585141138872
field stddev 0.85360672530208
field min 0.016252292001
field max 2.955217238791
field sum 51265.31258902
field sqrsum 100381.57679309
attr interpolationmode none
attr recordingmode histogram
attr source dataAge(packetReceived)
attr title "end-to-end delay"
attr unit s
bin	-inf	0
bin	0	302
bin	0.04	505
bin	0.08	505
bin	0.12	505
bin	0.16	505
bin	0.2	505
bin	0.24	505
bin	0.28	505
bin	0.32	505
bin	0.36	605
bin	0.4	505
bin	0.44	505
bin	0.48	505
bin	0.52	505
bin	0.56	502
bin	0.6	500
bin	0.64	500
bin	0.68	484
bin	0.72	480
bin	0.76	480
bin	0.8	480
bin	0.84	480
bin	0.88	480
bin	0.92	480
bin	0.96	480
bin	1	480
bin	1.04	480
bin	1.08	480
bin	1.12	480
bin	1.16	480
bin	1.2	480
bin	1.24	480
bin	1.28	480
bin	1.32	480
bin	1.36	474
bin	1.4	465
bin	1.44	465
bin	1.48	465
bin	1.52	465
bin	1.56	465
bin	1.6	465
bin	1.64	465
bin	1.68	465
bin	1.72	465
bin	1.76	465
bin	1.8	465
bin	1.84	465
bin	1.88	465
bin	1.92	465
bin	1.96	465
bin	2	465
bin	2.04	465
bin	2.08	465
bin	2.12	465
bin	2.16	465
bin	2.2	465
bin	2.24	465
bin	2.28	465
bin	2.32	465
bin	2.36	465
bin	2.4	465
bin	2.44	465
bin	2.48	465
bin	2.52	465
bin	2.56	465
bin	2.6	465
bin	2.64	465
bin	2.68	465
bin	2.72	465
bin	2.76	465
bin	2.8	465
bin	2.84	465
bin	2.88	465
bin	2.92	372
bin	2.96	0
scalar simpleBOLASetup.hostVID[0].app[0] numActiveSessions:max 1
attr interpolationmode sample-hold
attr recordingmode max
attr source sum(connect)
attr title "number of active sessions, max"
scalar simpleBOLASetup.hostVID[0].app[0] numActiveSessions:timeavg 0.94207465905284
attr interpolationmode sample-hold
attr recordingmode timeavg
attr source sum(connect)
attr title "number of active sessions, timeavg"
scalar simpleBOLASetup.hostVID[0].app[0] numSessions:last 1
attr recordingmode last
attr source sum(connect+1)/2
attr title "total number of sessions, last"
par simpleBOLASetup.hostVID[0].at typename "\"inet.common.MessageDispatcher\""
par simpleBOLASetup.hostVID[0].at displayStringTextFormat "\"processed %p pk (%l)\""
par simpleBOLASetup.hostVID[0].at forwardServiceRegistration true
par simpleBOLASetup.hostVID[0].at forwardProtocolRegistration true
par simpleBOLASetup.hostVID[0] typename "\"inet.node.inet.StandardHost\""
par simpleBOLASetup.hostVID[0] hasStatus false
par simpleBOLASetup.hostVID[0] osgModel "\"\""
par simpleBOLASetup.hostVID[0] osgModelColor "\"\""
par simpleBOLASetup.hostVID[0] canvasImage "\"\""
par simpleBOLASetup.hostVID[0] canvasImageColor "\"\""
par simpleBOLASetup.hostVID[0] recordPcap false
par simpleBOLASetup.hostVID[0] numPcapRecorders 0
par simpleBOLASetup.hostVID[0] numLoInterfaces 1
par simpleBOLASetup.hostVID[0] numWlanInterfaces 0
par simpleBOLASetup.hostVID[0] numEthInterfaces 0
par simpleBOLASetup.hostVID[0] numPppInterfaces 0
par simpleBOLASetup.hostVID[0] numTunInterfaces 0
par simpleBOLASetup.hostVID[0] numVirtInterfaces 0
par simpleBOLASetup.hostVID[0] fcsMode "\"declared\""
attr enum declared,computed
par simpleBOLASetup.hostVID[0] hasIpv4 true
par simpleBOLASetup.hostVID[0] hasIpv6 false
par simpleBOLASetup.hostVID[0] hasGn false
par simpleBOLASetup.hostVID[0] forwarding false
par simpleBOLASetup.hostVID[0] multicastForwarding false
par simpleBOLASetup.hostVID[0] hasUdp true
par simpleBOLASetup.hostVID[0] hasTcp true
par simpleBOLASetup.hostVID[0] hasSctp false
par simpleBOLASetup.hostVID[0] numApps 1
par simpleBOLASetup.router0.pppg$i[0].channel typename "\"ned.IdealChannel\""
par simpleBOLASetup.router0.ppp[0].phys$o.channel typename "\"ned.IdealChannel\""
par simpleBOLASetup.router0.pppg$i[1].channel typename "\"ned.IdealChannel\""
par simpleBOLASetup.router0.ppp[1].phys$o.channel typename "\"ned.IdealChannel\""
par simpleBOLASetup.router0.interfaceTable typename "\"inet.networklayer.common.InterfaceTable\""
par simpleBOLASetup.router0.interfaceTable displayAddresses false
par simpleBOLASetup.router0.cb typename "\"inet.common.MessageDispatcher\""
par simpleBOLASetup.router0.cb displayStringTextFormat "\"processed %p pk (%l)\""
par simpleBOLASetup.router0.cb forwardServiceRegistration true
par simpleBOLASetup.router0.cb forwardProtocolRegistration true
par simpleBOLASetup.router0.bl typename "\"inet.common.MessageDispatcher\""
par simpleBOLASetup.router0.bl displayStringTextFormat "\"processed %p pk (%l)\""
par simpleBOLASetup.router0.bl forwardServiceRegistration true
par simpleBOLASetup.router0.bl forwardProtocolRegistration true
par simpleBOLASetup.router0.li typename "\"inet.common.MessageDispatcher\""
par simpleBOLASetup.router0.li displayStringTextFormat "\"processed %p pk (%l)\""
par simpleBOLASetup.router0.li forwardServiceRegistration true
par simpleBOLASetup.router0.li forwardProtocolRegistration true
par simpleBOLASetup.router0.lo[0].upperLayerIn.channel typename "\"ned.IdealChannel\""
par simpleBOLASetup.router0.lo[0].lo.upperLayerOut.channel typename "\"ned.IdealChannel\""
par simpleBOLASetup.router0.lo[0].lo typename "\"inet.linklayer.loopback.Loopback\""
par simpleBOLASetup.router0.lo[0].lo interfaceTableModule "\"simpleBOLASetup.router0.interfaceTable\""
par simpleBOLASetup.router0.lo[0].lo mtu 4470B
attr unit B
scalar simpleBOLASetup.router0.lo[0].lo rcvdPkFromHl:count 0
attr interpolationmode none
attr recordingmode count
attr source packetReceivedFromUpper
attr title "packets received from higher layer, count"
scalar simpleBOLASetup.router0.lo[0].lo rcvdPkFromHl:sum(packetBytes) 0
attr interpolationmode none
attr recordingmode sum(packetBytes)
attr source packetReceivedFromUpper
attr title "packets received from higher layer, sum(packetBytes)"
scalar simpleBOLASetup.router0.lo[0].lo passedUpPk:count 0
attr interpolationmode none
attr recordingmode count
attr source packetSentToUpper
attr title "packets passed to higher layer, count"
scalar simpleBOLASetup.router0.lo[0].lo passedUpPk:sum(packetBytes) 0
attr interpolationmode none
attr recordingmode sum(packetBytes)
attr source packetSentToUpper
attr title "packets passed to higher layer, sum(packetBytes)"
par simpleBOLASetup.router0.lo[0] typename "\"inet.linklayer.loopback.LoopbackInterface\""
par simpleBOLASetup.router0.lo[0] displayStringTextFormat "\"%a (%i)\\n%m\""
par simpleBOLASetup.router0.lo[0] recordPcap false
par simpleBOLASetup.router0.lo[0] numPcapRecorders 0
par simpleBOLASetup.router0.lo[0] interfaceTableModule "\"simpleBOLASetup.router0.interfaceTable\""
scalar simpleBOLASetup.router0.lo[0] packetDropInterfaceDown:count 0
attr interpolationmode none
attr recordingmode count
attr source packetDropReasonIsInterfaceDown(packetDropped)
attr title "packet drops: interface down, count"
scalar simpleBOLASetup.router0.lo[0] packetDropInterfaceDown:sum(packetBytes) 0
attr interpolationmode none
attr recordingmode sum(packetBytes)
attr source packetDropReasonIsInterfaceDown(packetDropped)
attr title "packet drops: interface down, sum(packetBytes)"
scalar simpleBOLASetup.router0.lo[0] packetDropNoCarrier:count 0
attr interpolationmode none
attr recordingmode count
attr source packetDropReasonIsNoCarrier(packetDropped)
attr title "packet drops: no carrier, count"
scalar simpleBOLASetup.router0.lo[0] packetDropNoCarrier:sum(packetBytes) 0
attr interpolationmode none
attr recordingmode sum(packetBytes)
attr source packetDropReasonIsNoCarrier(packetDropped)
attr title "packet drops: no carrier, sum(packetBytes)"
par simpleBOLASetup.router0.ppp[0].phys$i.channel typename "\"ned.IdealChannel\""
par simpleBOLASetup.router0.ppp[0].ppp.phys$o.channel typename "\"ned.IdealChannel\""
par simpleBOLASetup.router0.ppp[0].ppp.upperLayerOut.channel typename "\"ned.IdealChannel\""
par simpleBOLASetup.router0.ppp[0].upperLayerIn.channel typename "\"ned.IdealChannel\""
par simpleBOLASetup.router0.ppp[0].queue typename "\"inet.queueing.queue.DropTailQueue\""
par simpleBOLASetup.router0.ppp[0].queue displayStringTextFormat "\"contains %p pk (%l) pushed %u\\npulled %o removed %r dropped %d\""
par simpleBOLASetup.router0.ppp[0].queue packetCapacity 500
par simpleBOLASetup.router0.ppp[0].queue dataCapacity -1b
attr unit b
par simpleBOLASetup.router0.ppp[0].queue dropperClass "\"inet::queueing::PacketAtCollectionEndDropper\""
par simpleBOLASetup.router0.ppp[0].queue comparatorClass "\"\""
par simpleBOLASetup.router0.ppp[0].queue bufferModule "\"\""
scalar simpleBOLASetup.router0.ppp[0].queue queueLength:last 0
attr autoWarmupFilter false
attr interpolationmode sample-hold
attr recordingmode last
attr source "warmup(atomic(constant0(packetPushEnded) + count(packetPushStarted) - count(packetPulled) - count(packetRemoved) - count(packetDropped)))"
attr title "queue length, last"
attr unit pk
scalar simpleBOLASetup.router0.ppp[0].queue queueLength:max 0
attr autoWarmupFilter false
attr interpolationmode sample-hold
attr recordingmode max
attr source "warmup(atomic(constant0(packetPushEnded) + count(packetPushStarted) - count(packetPulled) - count(packetRemoved) - count(packetDropped)))"
attr title "queue length, max"
attr unit pk
scalar simpleBOLASetup.router0.ppp[0].queue queueLength:timeavg 0
attr autoWarmupFilter false
attr interpolationmode sample-hold
attr recordingmode timeavg
attr source "warmup(atomic(constant0(packetPushEnded) + count(packetPushStarted) - count(packetPulled) - count(packetRemoved) - count(packetDropped)))"
attr title "queue length, timeavg"
attr unit pk
scalar simpleBOLASetup.router0.ppp[0].queue queueBitLength:last 0
attr autoWarmupFilter false
attr interpolationmode sample-hold
attr recordingmode last
attr source "warmup(atomic(constant0(packetPushEnded) + sum(packetLength(packetPushStarted)) - sum(packetLength(packetPulled)) - sum(packetLength(packetRemoved)) - sum(packetLength(packetDropped))))"
attr title "queue bit length, last"
attr unit b
scalar simpleBOLASetup.router0.ppp[0].queue queueBitLength:max 0
attr autoWarmupFilter false
attr interpolationmode sample-hold
attr recordingmode max
attr source "warmup(atomic(constant0(packetPushEnded) + sum(packetLength(packetPushStarted)) - sum(packetLength(packetPulled)) - sum(packetLength(packetRemoved)) - sum(packetLength(packetDropped))))"
attr title "queue bit length, max"
attr unit b
scalar simpleBOLASetup.router0.ppp[0].queue queueBitLength:timeavg 0
attr autoWarmupFilter false
attr interpolationmode sample-hold
attr recordingmode timeavg
attr source "warmup(atomic(constant0(packetPushEnded) + sum(packetLength(packetPushStarted)) - sum(packetLength(packetPulled)) - sum(packetLength(packetRemoved)) - sum(packetLength(packetDropped))))"
attr title "queue bit length, timeavg"
attr unit b
statistic simpleBOLASetup.router0.ppp[0].queue queueingTime:histogram
field count 35254
field mean 0
field stddev 0
field min 0
field max 0
field sum 0
field sqrsum 0
attr interpolationmode none
attr recordingmode histogram
attr source queueingTime(packetPulled)
attr title "queueing times"
attr unit s
bin	-inf	0
bin	-0.5	0
bin	-0.48	0
bin	-0.46	0
bin	-0.44	0
bin	-0.42	0
bin	-0.4	0
bin	-0.38	0
bin	-0.36	0
bin	-0.34	0
bin	-0.32	0
bin	-0.3	0
bin	-0.28	0
bin	-0.26	0
bin	-0.24	0
bin	-0.22	0
bin	-0.2	0
bin	-0.18	0
bin	-0.16	0
bin	-0.14	0
bin	-0.12	0
bin	-0.1	0
bin	-0.08	0
bin	-0.06	0
bin	-0.04	0
bin	-0.02	0
bin	0	35254
bin	0.02	0
bin	0.04	0
bin	0.06	0
bin	0.08	0
bin	0.1	0
bin	0.12	0
bin	0.14	0
bin	0.16	0
bin	0.18	0
bin	0.2	0
bin	0.22	0
bin	0.24	0
bin	0.26	0
bin	0.28	0
bin	0.3	0
bin	0.32	0
bin	0.34	0
bin	0.36	0
bin	0.38	0
bin	0.4	0
bin	0.42	0
bin	0.44	0
bin	0.46	0
bin	0.48	0
bin	0.5	0
scalar simpleBOLASetup.router0.ppp[0].queue outgoingPackets:count 35254
attr recordingmode count
attr source packetPulled
attr title "outgoing packets, count"
attr unit pk
scalar simpleBOLASetup.router0.ppp[0].queue outgoingPacketLengths:sum 11442912
attr interpolationmode none
attr recordingmode sum
attr source packetLength(packetPulled)
attr title "outgoing packet lengths, sum"
attr unit b
statistic simpleBOLASetup.router0.ppp[0].queue outgoingPacketLengths:histogram
field count 35254
field mean 324.58478470528
field stddev 85.5185328212
field min 320
field max 1920
field sum 11442912
field sqrsum 3972015104
attr interpolationmode none
attr recordingmode histogram
attr source packetLength(packetPulled)
attr title "outgoing packet lengths"
attr unit b
bin	-inf	0
bin	0	0
bin	50	0
bin	100	0
bin	150	0
bin	200	0
bin	250	0
bin	300	35152
bin	350	1
bin	400	0
bin	450	0
bin	500	0
bin	550	0
bin	600	0
bin	650	0
bin	700	0
bin	750	0
bin	800	0
bin	850	0
bin	900	0
bin	950	0
bin	1000	0
bin	1050	0
bin	1100	0
bin	1150	0
bin	1200	0
bin	1250	0
bin	1300	0
bin	1350	0
bin	1400	0
bin	1450	0
bin	1500	0
bin	1550	0
bin	1600	0
bin	1650	0
bin	1700	0
bin	1750	0
bin	1800	0
bin	1850	0
bin	1900	101
bin	1950	0
bin	2000	0
bin	2050	0
bin	2100	0
bin	2150	0
bin	2200	0
bin	2250	0
bin	2300	0
bin	2350	0
statistic simpleBOLASetup.router0.ppp[0].queue flowQueueingTime:histogram
field count 0
field mean nan
field stddev nan
field min nan
field max nan
field sum 0
field sqrsum 0
attr interpolationmode none
attr recordingmode histogram
attr source queueingTime(demuxFlow(packetPulled))
attr title "flow queueing times"
attr unit s
bin	-inf	0
bin	0	0
bin	1	0
scalar simpleBOLASetup.router0.ppp[0].queue incomingPackets:count 35254
attr recordingmode count
attr source packetPushStarted
attr title "incoming packets, count"
attr unit pk
scalar simpleBOLASetup.router0.ppp[0].queue incomingPacketLengths:sum 11442912
attr interpolationmode none
attr recordingmode sum
attr source packetLength(packetPushStarted)
attr title "incoming packet lengths, sum"
attr unit b
statistic simpleBOLASetup.router0.ppp[0].queue incomingPacketLengths:histogram
field count 35254
field mean 324.58478470528
field stddev 85.5185328212
field min 320
field max 1920
field sum 11442912
field sqrsum 3972015104
attr interpolationmode none
attr recordingmode histogram
attr source packetLength(packetPushStarted)
attr title "incoming packet lengths"
attr unit b
bin	-inf	0
bin	0	0
bin	50	0
bin	100	0
bin	150	0
bin	200	0
bin	250	0
bin	300	35152
bin	350	1
bin	400	0
bin	450	0
bin	500	0
bin	550	0
bin	600	0
bin	650	0
bin	700	0
bin	750	0
bin	800	0
bin	850	0
bin	900	0
bin	950	0
bin	1000	0
bin	1050	0
bin	1100	0
bin	1150	0
bin	1200	0
bin	1250	0
bin	1300	0
bin	1350	0
bin	1400	0
bin	1450	0
bin	1500	0
bin	1550	0
bin	1600	0
bin	1650	0
bin	1700	0
bin	1750	0
bin	1800	0
bin	1850	0
bin	1900	101
bin	1950	0
bin	2000	0
bin	2050	0
bin	2100	0
bin	2150	0
bin	2200	0
bin	2250	0
bin	2300	0
bin	2350	0
scalar simpleBOLASetup.router0.ppp[0].queue droppedPacketsQueueOverflow:count 0
attr interpolationmode none
attr recordingmode count
attr source packetDropReasonIsQueueOverflow(packetDropped)
attr title "dropped packets: queue overflow, count"
attr unit pk
scalar simpleBOLASetup.router0.ppp[0].queue droppedPacketLengthsQueueOverflow:sum 0
attr interpolationmode none
attr recordingmode sum
attr source packetLength(packetDropReasonIsQueueOverflow(packetDropped))
attr title "dropped packet lengths: queue overflow, sum"
attr unit b
par simpleBOLASetup.router0.ppp[0].ppp typename "\"inet.linklayer.ppp.Ppp\""
par simpleBOLASetup.router0.ppp[0].ppp interfaceTableModule "\"simpleBOLASetup.router0.interfaceTable\""
par simpleBOLASetup.router0.ppp[0].ppp displayStringTextFormat "\"rate: %b\\nsent: %s, rcvd: %r\\nqueue: %q, drop: %d\""
par simpleBOLASetup.router0.ppp[0].ppp sendRawBytes false
par simpleBOLASetup.router0.ppp[0].ppp mtu 4470B
attr unit B
par simpleBOLASetup.router0.ppp[0].ppp stopOperationExtraTime -1s
attr unit s
par simpleBOLASetup.router0.ppp[0].ppp stopOperationTimeout 2s
attr unit s
scalar simpleBOLASetup.router0.ppp[0].ppp transmissionState:timeavg 4.4723786666652e-05
attr interpolationmode sample-hold
attr recordingmode timeavg
attr source transmissionStateChanged
attr title "tx state, timeavg"
scalar simpleBOLASetup.router0.ppp[0].ppp rxPkOk:count 35253
attr interpolationmode none
attr recordingmode count
attr source rxPkOk
attr title "packets received OK, count"
scalar simpleBOLASetup.router0.ppp[0].ppp rxPkOk:sum(packetBytes) 52657895
attr interpolationmode none
attr recordingmode sum(packetBytes)
attr source rxPkOk
attr title "packets received OK, sum(packetBytes)"
scalar simpleBOLASetup.router0.ppp[0].ppp txPk:count 35254
attr interpolationmode none
attr recordingmode count
attr source packetSentToLower
attr title "packets transmitted, count"
scalar simpleBOLASetup.router0.ppp[0].ppp txPk:sum(packetBytes) 1677142
attr interpolationmode none
attr recordingmode sum(packetBytes)
attr source packetSentToLower
attr title "packets transmitted, sum(packetBytes)"
scalar simpleBOLASetup.router0.ppp[0].ppp rcvdPkFromHl:count 35254
attr interpolationmode none
attr recordingmode count
attr source packetReceivedFromUpper
attr title "packets received from higher layer, count"
scalar simpleBOLASetup.router0.ppp[0].ppp rcvdPkFromHl:sum(packetBytes) 1430364
attr interpolationmode none
attr recordingmode sum(packetBytes)
attr source packetReceivedFromUpper
attr title "packets received from higher layer, sum(packetBytes)"
scalar simpleBOLASetup.router0.ppp[0].ppp passedUpPk:count 35253
attr interpolationmode none
attr recordingmode count
attr source packetSentToUpper
attr title "packets passed to higher layer, count"
scalar simpleBOLASetup.router0.ppp[0].ppp passedUpPk:sum(packetBytes) 52411124
attr interpolationmode none
attr recordingmode sum(packetBytes)
attr source packetSentToUpper
attr title "packets passed to higher layer, sum(packetBytes)"
scalar simpleBOLASetup.router0.ppp[0].ppp packetDropIncorrectlyReceived:count 0
attr interpolationmode none
attr recordingmode count
attr source packetDropReasonIsIncorrectlyReceived(packetDropped)
attr title "packet drop: incorrectly received, count"
scalar simpleBOLASetup.router0.ppp[0].ppp packetDropIncorrectlyReceived:sum(packetBytes) 0
attr interpolationmode none
attr recordingmode sum(packetBytes)
attr source packetDropReasonIsIncorrectlyReceived(packetDropped)
attr title "packet drop: incorrectly received, sum(packetBytes)"
scalar simpleBOLASetup.router0.ppp[0].ppp packetDropInterfaceDown:count 0
attr interpolationmode none
attr recordingmode count
attr source packetDropReasonIsInterfaceDown(packetDropped)
attr title "packet drop: interface down, count"
scalar simpleBOLASetup.router0.ppp[0].ppp packetDropInterfaceDown:sum(packetBytes) 0
attr interpolationmode none
attr recordingmode sum(packetBytes)
attr source packetDropReasonIsInterfaceDown(packetDropped)
attr title "packet drop: interface down, sum(packetBytes)"
par simpleBOLASetup.router0.ppp[0] typename "\"inet.linklayer.ppp.PppInterface\""
par simpleBOLASetup.router0.ppp[0] displayStringTextFormat "\"%a (%i)\\n%m\""
par simpleBOLASetup.router0.ppp[0] recordPcap false
par simpleBOLASetup.router0.ppp[0] numPcapRecorders 0
par simpleBOLASetup.router0.ppp[0] interfaceTableModule "\"simpleBOLASetup.router0.interfaceTable\""
scalar simpleBOLASetup.router0.ppp[0] packetDropInterfaceDown:count 0
attr interpolationmode none
attr recordingmode count
attr source packetDropReasonIsInterfaceDown(packetDropped)
attr title "packet drops: interface down, count"
scalar simpleBOLASetup.router0.ppp[0] packetDropInterfaceDown:sum(packetBytes) 0
attr interpolationmode none
attr recordingmode sum(packetBytes)
attr source packetDropReasonIsInterfaceDown(packetDropped)
attr title "packet drops: interface down, sum(packetBytes)"
scalar simpleBOLASetup.router0.ppp[0] packetDropNoCarrier:count 0
attr interpolationmode none
attr recordingmode count
attr source packetDropReasonIsNoCarrier(packetDropped)
attr title "packet drops: no carrier, count"
scalar simpleBOLASetup.router0.ppp[0] packetDropNoCarrier:sum(packetBytes) 0
attr interpolationmode none
attr recordingmode sum(packetBytes)
attr source packetDropReasonIsNoCarrier(packetDropped)
attr title "packet drops: no carrier, sum(packetBytes)"
par simpleBOLASetup.router0.ppp[1].phys$i.channel typename "\"ned.IdealChannel\""
par simpleBOLASetup.router0.ppp[1].ppp.phys$o.channel typename "\"ned.IdealChannel\""
par simpleBOLASetup.router0.ppp[1].ppp.upperLayerOut.channel typename "\"ned.IdealChannel\""
par simpleBOLASetup.router0.ppp[1].upperLayerIn.channel typename "\"ned.IdealChannel\""
par simpleBOLASetup.router0.ppp[1].queue typename "\"inet.queueing.queue.DropTailQueue\""
par simpleBOLASetup.router0.ppp[1].queue displayStringTextFormat "\"contains %p pk (%l) pushed %u\\npulled %o removed %r dropped %d\""
par simpleBOLASetup.router0.ppp[1].queue packetCapacity 500
par simpleBOLASetup.router0.ppp[1].queue dataCapacity -1b
attr unit b
par simpleBOLASetup.router0.ppp[1].queue dropperClass "\"inet::queueing::PacketAtCollectionEndDropper\""
par simpleBOLASetup.router0.ppp[1].queue comparatorClass "\"\""
par simpleBOLASetup.router0.ppp[1].queue bufferModule "\"\""
scalar simpleBOLASetup.router0.ppp[1].queue queueLength:last 0
attr autoWarmupFilter false
attr interpolationmode sample-hold
attr recordingmode last
attr source "warmup(atomic(constant0(packetPushEnded) + count(packetPushStarted) - count(packetPulled) - count(packetRemoved) - count(packetDropped)))"
attr title "queue length, last"
attr unit pk
scalar simpleBOLASetup.router0.ppp[1].queue queueLength:max 0
attr autoWarmupFilter false
attr interpolationmode sample-hold
attr recordingmode max
attr source "warmup(atomic(constant0(packetPushEnded) + count(packetPushStarted) - count(packetPulled) - count(packetRemoved) - count(packetDropped)))"
attr title "queue length, max"
attr unit pk
scalar simpleBOLASetup.router0.ppp[1].queue queueLength:timeavg 0
attr autoWarmupFilter false
attr interpolationmode sample-hold
attr recordingmode timeavg
attr source "warmup(atomic(constant0(packetPushEnded) + count(packetPushStarted) - count(packetPulled) - count(packetRemoved) - count(packetDropped)))"
attr title "queue length, timeavg"
attr unit pk
scalar simpleBOLASetup.router0.ppp[1].queue queueBitLength:last 0
attr autoWarmupFilter false
attr interpolationmode sample-hold
attr recordingmode last
attr source "warmup(atomic(constant0(packetPushEnded) + sum(packetLength(packetPushStarted)) - sum(packetLength(packetPulled)) - sum(packetLength(packetRemoved)) - sum(packetLength(packetDropped))))"
attr title "queue bit length, last"
attr unit b
scalar simpleBOLASetup.router0.ppp[1].queue queueBitLength:max 0
attr autoWarmupFilter false
attr interpolationmode sample-hold
attr recordingmode max
attr source "warmup(atomic(constant0(packetPushEnded) + sum(packetLength(packetPushStarted)) - sum(packetLength(packetPulled)) - sum(packetLength(packetRemoved)) - sum(packetLength(packetDropped))))"
attr title "queue bit length, max"
attr unit b
scalar simpleBOLASetup.router0.ppp[1].queue queueBitLength:timeavg 0
attr autoWarmupFilter false
attr interpolationmode sample-hold
attr recordingmode timeavg
attr source "warmup(atomic(constant0(packetPushEnded) + sum(packetLength(packetPushStarted)) - sum(packetLength(packetPulled)) - sum(packetLength(packetRemoved)) - sum(packetLength(packetDropped))))"
attr title "queue bit length, timeavg"
attr unit b
statistic simpleBOLASetup.router0.ppp[1].queue queueingTime:histogram
field count 35253
field mean 0
field stddev 0
field min 0
field max 0
field sum 0
field sqrsum 0
attr interpolationmode none
attr recordingmode histogram
attr source queueingTime(packetPulled)
attr title "queueing times"
attr unit s
bin	-inf	0
bin	-0.5	0
bin	-0.48	0
bin	-0.46	0
bin	-0.44	0
bin	-0.42	0
bin	-0.4	0
bin	-0.38	0
bin	-0.36	0
bin	-0.34	0
bin	-0.32	0
bin	-0.3	0
bin	-0.28	0
bin	-0.26	0
bin	-0.24	0
bin	-0.22	0
bin	-0.2	0
bin	-0.18	0
bin	-0.16	0
bin	-0.14	0
bin	-0.12	0
bin	-0.1	0
bin	-0.08	0
bin	-0.06	0
bin	-0.04	0
bin	-0.02	0
bin	0	35253
bin	0.02	0
bin	0.04	0
bin	0.06	0
bin	0.08	0
bin	0.1	0
bin	0.12	0
bin	0.14	0
bin	0.16	0
bin	0.18	0
bin	0.2	0
bin	0.22	0
bin	0.24	0
bin	0.26	0
bin	0.28	0
bin	0.3	0
bin	0.32	0
bin	0.34	0
bin	0.36	0
bin	0.38	0
bin	0.4	0
bin	0.42	0
bin	0.44	0
bin	0.46	0
bin	0.48	0
bin	0.5	0
scalar simpleBOLASetup.router0.ppp[1].queue outgoingPackets:count 35253
attr recordingmode count
attr source packetPulled
attr title "outgoing packets, count"
attr unit pk
scalar simpleBOLASetup.router0.ppp[1].queue outgoingPacketLengths:sum 419288992
attr interpolationmode none
attr recordingmode sum
attr source packetLength(packetPulled)
attr title "outgoing packet lengths, sum"
attr unit b
statistic simpleBOLASetup.router0.ppp[1].queue outgoingPacketLengths:histogram
field count 35253
field mean 11893.710946586
field stddev 647.83109558384
field min 320
field max 11936
field sum 419288992
field sqrsum 5001696814080
attr interpolationmode none
attr recordingmode histogram
attr source packetLength(packetPulled)
attr title "outgoing packet lengths"
attr unit b
bin	-inf	0
bin	0	0
bin	200	104
bin	400	0
bin	600	0
bin	800	0
bin	1000	0
bin	1200	0
bin	1400	0
bin	1600	0
bin	1800	0
bin	2000	0
bin	2200	0
bin	2400	0
bin	2600	0
bin	2800	0
bin	3000	0
bin	3200	0
bin	3400	0
bin	3600	0
bin	3800	0
bin	4000	0
bin	4200	0
bin	4400	0
bin	4600	0
bin	4800	0
bin	5000	0
bin	5200	0
bin	5400	0
bin	5600	0
bin	5800	3
bin	6000	0
bin	6200	0
bin	6400	0
bin	6600	0
bin	6800	0
bin	7000	0
bin	7200	0
bin	7400	0
bin	7600	0
bin	7800	0
bin	8000	0
bin	8200	0
bin	8400	4
bin	8600	0
bin	8800	0
bin	9000	0
bin	9200	93
bin	9400	0
bin	9600	0
bin	9800	0
bin	10000	0
bin	10200	0
bin	10400	1
bin	10600	0
bin	10800	0
bin	11000	0
bin	11200	0
bin	11400	0
bin	11600	0
bin	11800	35048
bin	12000	0
bin	12200	0
bin	12400	0
bin	12600	0
bin	12800	0
bin	13000	0
bin	13200	0
bin	13400	0
bin	13600	0
bin	13800	0
bin	14000	0
bin	14200	0
bin	14400	0
bin	14600	0
bin	14800	0
bin	15000	0
statistic simpleBOLASetup.router0.ppp[1].queue flowQueueingTime:histogram
field count 0
field mean nan
field stddev nan
field min nan
field max nan
field sum 0
field sqrsum 0
attr interpolationmode none
attr recordingmode histogram
attr source queueingTime(demuxFlow(packetPulled))
attr title "flow queueing times"
attr unit s
bin	-inf	0
bin	0	0
bin	1	0
scalar simpleBOLASetup.router0.ppp[1].queue incomingPackets:count 35253
attr recordingmode count
attr source packetPushStarted
attr title "incoming packets, count"
attr unit pk
scalar simpleBOLASetup.router0.ppp[1].queue incomingPacketLengths:sum 419288992
attr interpolationmode none
attr recordingmode sum
attr source packetLength(packetPushStarted)
attr title "incoming packet lengths, sum"
attr unit b
statistic simpleBOLASetup.router0.ppp[1].queue incomingPacketLengths:histogram
field count 35253
field mean 11893.710946586
field stddev 647.83109558384
field min 320
field max 11936
field sum 419288992
field sqrsum 5001696814080
attr interpolationmode none
attr recordingmode histogram
attr source packetLength(packetPushStarted)
attr title "incoming packet lengths"
attr unit b
bin	-inf	0
bin	0	0
bin	200	104
bin	400	0
bin	600	0
bin	800	0
bin	1000	0
bin	1200	0
bin	1400	0
bin	1600	0
bin	1800	0
bin	2000	0
bin	2200	0
bin	2400	0
bin	2600	0
bin	2800	0
bin	3000	0
bin	3200	0
bin	3400	0
bin	3600	0
bin	3800	0
bin	4000	0
bin	4200	0
bin	4400	0
bin	4600	0
bin	4800	0
bin	5000	0
bin	5200	0
bin	5400	0
bin	5600	0
bin	5800	3
bin	6000	0
bin	6200	0
bin	6400	0
bin	6600	0
bin	6800	0
bin	7000	0
bin	7200	0
bin	7400	0
bin	7600	0
bin	7800	0
bin	8000	0
bin	8200	0
bin	8400	4
bin	8600	0
bin	8800	0
bin	9000	0
bin	9200	93
bin	9400	0
bin	9600	0
bin	9800	0
bin	10000	0
bin	10200	0
bin	10400	1
bin	10600	0
bin	10800	0
bin	11000	0
bin	11200	0
bin	11400	0
bin	11600	0
bin	11800	35048
bin	12000	0
bin	12200	0
bin	12400	0
bin	12600	0
bin	12800	0
bin	13000	0
bin	13200	0
bin	13400	0
bin	13600	0
bin	13800	0
bin	14000	0
bin	14200	0
bin	14400	0
bin	14600	0
bin	14800	0
bin	15000	0
scalar simpleBOLASetup.router0.ppp[1].queue droppedPacketsQueueOverflow:count 0
attr interpolationmode none
attr recordingmode count
attr source packetDropReasonIsQueueOverflow(packetDropped)
attr title "dropped packets: queue overflow, count"
attr unit pk
scalar simpleBOLASetup.router0.ppp[1].queue droppedPacketLengthsQueueOverflow:sum 0
attr interpolationmode none
attr recordingmode sum
attr source packetLength(packetDropReasonIsQueueOverflow(packetDropped))
attr title "dropped packet lengths: queue overflow, sum"
attr unit b
par simpleBOLASetup.router0.ppp[1].ppp typename "\"inet.linklayer.ppp.Ppp\""
par simpleBOLASetup.router0.ppp[1].ppp interfaceTableModule "\"simpleBOLASetup.router0.interfaceTable\""
par simpleBOLASetup.router0.ppp[1].ppp displayStringTextFormat "\"rate: %b\\nsent: %s, rcvd: %r\\nqueue: %q, drop: %d\""
par simpleBOLASetup.router0.ppp[1].ppp sendRawBytes false
par simpleBOLASetup.router0.ppp[1].ppp mtu 4470B
attr unit B
par simpleBOLASetup.router0.ppp[1].ppp stopOperationExtraTime -1s
attr unit s
par simpleBOLASetup.router0.ppp[1].ppp stopOperationTimeout 2s
attr unit s
scalar simpleBOLASetup.router0.ppp[1].ppp transmissionState:timeavg 0.93614035559498
attr interpolationmode sample-hold
attr recordingmode timeavg
attr source transmissionStateChanged
attr title "tx state, timeavg"
scalar simpleBOLASetup.router0.ppp[1].ppp rxPkOk:count 35254
attr interpolationmode none
attr recordingmode count
attr source rxPkOk
attr title "packets received OK, count"
scalar simpleBOLASetup.router0.ppp[1].ppp rxPkOk:sum(packetBytes) 1677142
attr interpolationmode none
attr recordingmode sum(packetBytes)
attr source rxPkOk
attr title "packets received OK, sum(packetBytes)"
scalar simpleBOLASetup.router0.ppp[1].ppp txPk:count 35253
attr interpolationmode none
attr recordingmode count
attr source packetSentToLower
attr title "packets transmitted, count"
scalar simpleBOLASetup.router0.ppp[1].ppp txPk:sum(packetBytes) 52657895
attr interpolationmode none
attr recordingmode sum(packetBytes)
attr source packetSentToLower
attr title "packets transmitted, sum(packetBytes)"
scalar simpleBOLASetup.router0.ppp[1].ppp rcvdPkFromHl:count 35253
attr interpolationmode none
attr recordingmode count
attr source packetReceivedFromUpper
attr title "packets received from higher layer, count"
scalar simpleBOLASetup.router0.ppp[1].ppp rcvdPkFromHl:sum(packetBytes) 52411124
attr interpolationmode none
attr recordingmode sum(packetBytes)
attr source packetReceivedFromUpper
attr title "packets received from higher layer, sum(packetBytes)"
scalar simpleBOLASetup.router0.ppp[1].ppp passedUpPk:count 35254
attr interpolationmode none
attr recordingmode count
attr source packetSentToUpper
attr title "packets passed to higher layer, count"
scalar simpleBOLASetup.router0.ppp[1].ppp passedUpPk:sum(packetBytes) 1430364
attr interpolationmode none
attr recordingmode sum(packetBytes)
attr source packetSentToUpper
attr title "packets passed to higher layer, sum(packetBytes)"
scalar simpleBOLASetup.router0.ppp[1].ppp packetDropIncorrectlyReceived:count 0
attr interpolationmode none
attr recordingmode count
attr source packetDropReasonIsIncorrectlyReceived(packetDropped)
attr title "packet drop: incorrectly received, count"
scalar simpleBOLASetup.router0.ppp[1].ppp packetDropIncorrectlyReceived:sum(packetBytes) 0
attr interpolationmode none
attr recordingmode sum(packetBytes)
attr source packetDropReasonIsIncorrectlyReceived(packetDropped)
attr title "packet drop: incorrectly received, sum(packetBytes)"
scalar simpleBOLASetup.router0.ppp[1].ppp packetDropInterfaceDown:count 0
attr interpolationmode none
attr recordingmode count
attr source packetDropReasonIsInterfaceDown(packetDropped)
attr title "packet drop: interface down, count"
scalar simpleBOLASetup.router0.ppp[1].ppp packetDropInterfaceDown:sum(packetBytes) 0
attr interpolationmode none
attr recordingmode sum(packetBytes)
attr source packetDropReasonIsInterfaceDown(packetDropped)
attr title "packet drop: interface down, sum(packetBytes)"
par simpleBOLASetup.router0.ppp[1] typename "\"inet.linklayer.ppp.PppInterface\""
par simpleBOLASetup.router0.ppp[1] displayStringTextFormat "\"%a (%i)\\n%m\""
par simpleBOLASetup.router0.ppp[1] recordPcap false
par simpleBOLASetup.router0.ppp[1] numPcapRecorders 0
par simpleBOLASetup.router0.ppp[1] interfaceTableModule "\"simpleBOLASetup.router0.interfaceTable\""
scalar simpleBOLASetup.router0.ppp[1] packetDropInterfaceDown:count 0
attr interpolationmode none
attr recordingmode count
attr source packetDropReasonIsInterfaceDown(packetDropped)
attr title "packet drops: interface down, count"
scalar simpleBOLASetup.router0.ppp[1] packetDropInterfaceDown:sum(packetBytes) 0
attr interpolationmode none
attr recordingmode sum(packetBytes)
attr source packetDropReasonIsInterfaceDown(packetDropped)
attr title "packet drops: interface down, sum(packetBytes)"
scalar simpleBOLASetup.router0.ppp[1] packetDropNoCarrier:count 0
attr interpolationmode none
attr recordingmode count
attr source packetDropReasonIsNoCarrier(packetDropped)
attr title "packet drops: no carrier, count"
scalar simpleBOLASetup.router0.ppp[1] packetDropNoCarrier:sum(packetBytes) 0
attr interpolationmode none
attr recordingmode sum(packetBytes)
attr source packetDropReasonIsNoCarrier(packetDropped)
attr title "packet drops: no carrier, sum(packetBytes)"
par simpleBOLASetup.router0.ipv4.transportIn.channel typename "\"ned.IdealChannel\""
par simpleBOLASetup.router0.ipv4.up.out[0].channel typename "\"ned.IdealChannel\""
par simpleBOLASetup.router0.ipv4.lp.out[2].channel typename "\"ned.IdealChannel\""
par simpleBOLASetup.router0.ipv4.ifIn.channel typename "\"ned.IdealChannel\""
par simpleBOLASetup.router0.ipv4.configurator typename "\"inet.networklayer.configurator.ipv4.Ipv4NodeConfigurator\""
par simpleBOLASetup.router0.ipv4.configurator interfaceTableModule "\"simpleBOLASetup.router0.interfaceTable\""
par simpleBOLASetup.router0.ipv4.configurator routingTableModule "\"simpleBOLASetup.router0.ipv4.routingTable\""
par simpleBOLASetup.router0.ipv4.configurator networkConfiguratorModule "\"configurator\""
par simpleBOLASetup.router0.ipv4.configurator configureRoutingTable true
par simpleBOLASetup.router0.ipv4.routingTable typename "\"inet.networklayer.ipv4.Ipv4RoutingTable\""
par simpleBOLASetup.router0.ipv4.routingTable interfaceTableModule "\"simpleBOLASetup.router0.interfaceTable\""
par simpleBOLASetup.router0.ipv4.routingTable routerId "\"auto\""
par simpleBOLASetup.router0.ipv4.routingTable netmaskRoutes "\"*\""
par simpleBOLASetup.router0.ipv4.routingTable forwarding true
par simpleBOLASetup.router0.ipv4.routingTable multicastForwarding false
par simpleBOLASetup.router0.ipv4.routingTable useAdminDist false
par simpleBOLASetup.router0.ipv4.routingTable routingFile "\"\""
par simpleBOLASetup.router0.ipv4.natTable typename "\"inet.networklayer.ipv4.Ipv4NatTable\""
par simpleBOLASetup.router0.ipv4.natTable networkProtocolModule "\"^.ip\""
par simpleBOLASetup.router0.ipv4.natTable config "<config/> at content:1"
par simpleBOLASetup.router0.ipv4.up typename "\"inet.common.MessageDispatcher\""
par simpleBOLASetup.router0.ipv4.up displayStringTextFormat "\"processed %p pk (%l)\""
par simpleBOLASetup.router0.ipv4.up forwardServiceRegistration true
par simpleBOLASetup.router0.ipv4.up forwardProtocolRegistration true
par simpleBOLASetup.router0.ipv4.igmp typename "\"inet.networklayer.ipv4.Igmpv2\""
par simpleBOLASetup.router0.ipv4.igmp interfaceTableModule "\"simpleBOLASetup.router0.interfaceTable\""
par simpleBOLASetup.router0.ipv4.igmp routingTableModule "\"simpleBOLASetup.router0.ipv4.routingTable\""
par simpleBOLASetup.router0.ipv4.igmp crcMode "\"computed\""
attr enum declared,computed
par simpleBOLASetup.router0.ipv4.igmp enabled true
par simpleBOLASetup.router0.ipv4.igmp robustnessVariable 2
par simpleBOLASetup.router0.ipv4.igmp queryInterval 125s
attr unit s
par simpleBOLASetup.router0.ipv4.igmp queryResponseInterval 10s
attr unit s
par simpleBOLASetup.router0.ipv4.igmp groupMembershipInterval 260s
attr unit s
par simpleBOLASetup.router0.ipv4.igmp otherQuerierPresentInterval 255s
attr unit s
par simpleBOLASetup.router0.ipv4.igmp startupQueryInterval 31.25s
attr unit s
par simpleBOLASetup.router0.ipv4.igmp startupQueryCount 2
par simpleBOLASetup.router0.ipv4.igmp lastMemberQueryInterval 1s
attr unit s
par simpleBOLASetup.router0.ipv4.igmp lastMemberQueryCount 2
par simpleBOLASetup.router0.ipv4.igmp unsolicitedReportInterval 10s
attr unit s
par simpleBOLASetup.router0.ipv4.icmp typename "\"inet.networklayer.ipv4.Icmp\""
par simpleBOLASetup.router0.ipv4.icmp interfaceTableModule "\"simpleBOLASetup.router0.interfaceTable\""
par simpleBOLASetup.router0.ipv4.icmp routingTableModule "\"simpleBOLASetup.router0.ipv4.routingTable\""
par simpleBOLASetup.router0.ipv4.icmp crcMode "\"computed\""
attr enum declared,computed
attr mutable ""
par simpleBOLASetup.router0.ipv4.icmp quoteLength 8B
attr mutable ""
attr unit B
par simpleBOLASetup.router0.ipv4.mp typename "\"inet.common.MessageDispatcher\""
par simpleBOLASetup.router0.ipv4.mp displayStringTextFormat "\"processed %p pk (%l)\""
par simpleBOLASetup.router0.ipv4.mp forwardServiceRegistration true
par simpleBOLASetup.router0.ipv4.mp forwardProtocolRegistration true
par simpleBOLASetup.router0.ipv4.ip typename "\"inet.networklayer.ipv4.Ipv4\""
par simpleBOLASetup.router0.ipv4.ip interfaceTableModule "\"simpleBOLASetup.router0.interfaceTable\""
par simpleBOLASetup.router0.ipv4.ip routingTableModule "\"simpleBOLASetup.router0.ipv4.routingTable\""
par simpleBOLASetup.router0.ipv4.ip arpModule "\"simpleBOLASetup.router0.ipv4.arp\""
par simpleBOLASetup.router0.ipv4.ip icmpModule "\"simpleBOLASetup.router0.ipv4.icmp\""
par simpleBOLASetup.router0.ipv4.ip crcMode "\"computed\""
attr enum declared,computed
par simpleBOLASetup.router0.ipv4.ip timeToLive 32
par simpleBOLASetup.router0.ipv4.ip multicastTimeToLive 32
par simpleBOLASetup.router0.ipv4.ip fragmentTimeout 60s
attr unit s
par simpleBOLASetup.router0.ipv4.ip limitedBroadcast false
par simpleBOLASetup.router0.ipv4.ip directBroadcastInterfaces "\"\""
scalar simpleBOLASetup.router0.ipv4.ip packetDropAddressResolutionFailed:count 0
attr interpolationmode none
attr recordingmode count
attr source packetDropReasonIsAddressResolutionFailed(packetDropped)
attr title "packet drop: address resolution failed, count"
scalar simpleBOLASetup.router0.ipv4.ip packetDropAddressResolutionFailed:sum(packetBytes) 0
attr interpolationmode none
attr recordingmode sum(packetBytes)
attr source packetDropReasonIsAddressResolutionFailed(packetDropped)
attr title "packet drop: address resolution failed, sum(packetBytes)"
scalar simpleBOLASetup.router0.ipv4.ip packetDropHopLimitReached:count 0
attr interpolationmode none
attr recordingmode count
attr source packetDropReasonIsHopLimitReached(packetDropped)
attr title "packet drop: hop limit reached, count"
scalar simpleBOLASetup.router0.ipv4.ip packetDropHopLimitReached:sum(packetBytes) 0
attr interpolationmode none
attr recordingmode sum(packetBytes)
attr source packetDropReasonIsHopLimitReached(packetDropped)
attr title "packet drop: hop limit reached, sum(packetBytes)"
scalar simpleBOLASetup.router0.ipv4.ip packetDropForwardingDisabled:count 0
attr interpolationmode none
attr recordingmode count
[...]
attr recordingmode sum(packetBytes)
attr source packetDropReasonIsIncorrectlyReceived(packetDropped)
attr title "packet drop: incorrectly received, sum(packetBytes)"
scalar simpleBOLASetup.serverVID.ppp[0].ppp packetDropInterfaceDown:count 0
attr interpolationmode none
attr recordingmode count
attr source packetDropReasonIsInterfaceDown(packetDropped)
attr title "packet drop: interface down, count"
scalar simpleBOLASetup.serverVID.ppp[0].ppp packetDropInterfaceDown:sum(packetBytes) 0
attr interpolationmode none
attr recordingmode sum(packetBytes)
attr source packetDropReasonIsInterfaceDown(packetDropped)
attr title "packet drop: interface down, sum(packetBytes)"
par simpleBOLASetup.serverVID.ppp[0] typename "\"inet.linklayer.ppp.PppInterface\""
par simpleBOLASetup.serverVID.ppp[0] displayStringTextFormat "\"%a (%i)\\n%m\""
par simpleBOLASetup.serverVID.ppp[0] recordPcap false
par simpleBOLASetup.serverVID.ppp[0] numPcapRecorders 0
par simpleBOLASetup.serverVID.ppp[0] interfaceTableModule "\"simpleBOLASetup.serverVID.interfaceTable\""
scalar simpleBOLASetup.serverVID.ppp[0] packetDropInterfaceDown:count 0
attr interpolationmode none
attr recordingmode count
attr source packetDropReasonIsInterfaceDown(packetDropped)
attr title "packet drops: interface down, count"
scalar simpleBOLASetup.serverVID.ppp[0] packetDropInterfaceDown:sum(packetBytes) 0
attr interpolationmode none
attr recordingmode sum(packetBytes)
attr source packetDropReasonIsInterfaceDown(packetDropped)
attr title "packet drops: interface down, sum(packetBytes)"
scalar simpleBOLASetup.serverVID.ppp[0] packetDropNoCarrier:count 0
attr interpolationmode none
attr recordingmode count
attr source packetDropReasonIsNoCarrier(packetDropped)
attr title "packet drops: no carrier, count"
scalar simpleBOLASetup.serverVID.ppp[0] packetDropNoCarrier:sum(packetBytes) 0
attr interpolationmode none
attr recordingmode sum(packetBytes)
attr source packetDropReasonIsNoCarrier(packetDropped)
attr title "packet drops: no carrier, sum(packetBytes)"
par simpleBOLASetup.serverVID.ipv4.transportIn.channel typename "\"ned.IdealChannel\""
par simpleBOLASetup.serverVID.ipv4.up.out[0].channel typename "\"ned.IdealChannel\""
par simpleBOLASetup.serverVID.ipv4.lp.out[2].channel typename "\"ned.IdealChannel\""
par simpleBOLASetup.serverVID.ipv4.ifIn.channel typename "\"ned.IdealChannel\""
par simpleBOLASetup.serverVID.ipv4.configurator typename "\"inet.networklayer.configurator.ipv4.Ipv4NodeConfigurator\""
par simpleBOLASetup.serverVID.ipv4.configurator interfaceTableModule "\"simpleBOLASetup.serverVID.interfaceTable\""
par simpleBOLASetup.serverVID.ipv4.configurator routingTableModule "\"simpleBOLASetup.serverVID.ipv4.routingTable\""
par simpleBOLASetup.serverVID.ipv4.configurator networkConfiguratorModule "\"configurator\""
par simpleBOLASetup.serverVID.ipv4.configurator configureRoutingTable true
par simpleBOLASetup.serverVID.ipv4.routingTable typename "\"inet.networklayer.ipv4.Ipv4RoutingTable\""
par simpleBOLASetup.serverVID.ipv4.routingTable interfaceTableModule "\"simpleBOLASetup.serverVID.interfaceTable\""
par simpleBOLASetup.serverVID.ipv4.routingTable routerId "\"auto\""
par simpleBOLASetup.serverVID.ipv4.routingTable netmaskRoutes "\"*\""
par simpleBOLASetup.serverVID.ipv4.routingTable forwarding false
par simpleBOLASetup.serverVID.ipv4.routingTable multicastForwarding false
par simpleBOLASetup.serverVID.ipv4.routingTable useAdminDist false
par simpleBOLASetup.serverVID.ipv4.routingTable routingFile "\"\""
par simpleBOLASetup.serverVID.ipv4.natTable typename "\"inet.networklayer.ipv4.Ipv4NatTable\""
par simpleBOLASetup.serverVID.ipv4.natTable networkProtocolModule "\"^.ip\""
par simpleBOLASetup.serverVID.ipv4.natTable config "<config/> at content:1"
par simpleBOLASetup.serverVID.ipv4.up typename "\"inet.common.MessageDispatcher\""
par simpleBOLASetup.serverVID.ipv4.up displayStringTextFormat "\"processed %p pk (%l)\""
par simpleBOLASetup.serverVID.ipv4.up forwardServiceRegistration true
par simpleBOLASetup.serverVID.ipv4.up forwardProtocolRegistration true
par simpleBOLASetup.serverVID.ipv4.igmp typename "\"inet.networklayer.ipv4.Igmpv2\""
par simpleBOLASetup.serverVID.ipv4.igmp interfaceTableModule "\"simpleBOLASetup.serverVID.interfaceTable\""
par simpleBOLASetup.serverVID.ipv4.igmp routingTableModule "\"simpleBOLASetup.serverVID.ipv4.routingTable\""
par simpleBOLASetup.serverVID.ipv4.igmp crcMode "\"computed\""
attr enum declared,computed
par simpleBOLASetup.serverVID.ipv4.igmp enabled true
par simpleBOLASetup.serverVID.ipv4.igmp robustnessVariable 2
par simpleBOLASetup.serverVID.ipv4.igmp queryInterval 125s
attr unit s
par simpleBOLASetup.serverVID.ipv4.igmp queryResponseInterval 10s
attr unit s
par simpleBOLASetup.serverVID.ipv4.igmp groupMembershipInterval 260s
attr unit s
par simpleBOLASetup.serverVID.ipv4.igmp otherQuerierPresentInterval 255s
attr unit s
par simpleBOLASetup.serverVID.ipv4.igmp startupQueryInterval 31.25s
attr unit s
par simpleBOLASetup.serverVID.ipv4.igmp startupQueryCount 2
par simpleBOLASetup.serverVID.ipv4.igmp lastMemberQueryInterval 1s
attr unit s
par simpleBOLASetup.serverVID.ipv4.igmp lastMemberQueryCount 2
par simpleBOLASetup.serverVID.ipv4.igmp unsolicitedReportInterval 10s
attr unit s
par simpleBOLASetup.serverVID.ipv4.icmp typename "\"inet.networklayer.ipv4.Icmp\""
par simpleBOLASetup.serverVID.ipv4.icmp interfaceTableModule "\"simpleBOLASetup.serverVID.interfaceTable\""
par simpleBOLASetup.serverVID.ipv4.icmp routingTableModule "\"simpleBOLASetup.serverVID.ipv4.routingTable\""
par simpleBOLASetup.serverVID.ipv4.icmp crcMode "\"computed\""
attr enum declared,computed
attr mutable ""
par simpleBOLASetup.serverVID.ipv4.icmp quoteLength 8B
attr mutable ""
attr unit B
par simpleBOLASetup.serverVID.ipv4.mp typename "\"inet.common.MessageDispatcher\""
par simpleBOLASetup.serverVID.ipv4.mp displayStringTextFormat "\"processed %p pk (%l)\""
par simpleBOLASetup.serverVID.ipv4.mp forwardServiceRegistration true
par simpleBOLASetup.serverVID.ipv4.mp forwardProtocolRegistration true
par simpleBOLASetup.serverVID.ipv4.ip typename "\"inet.networklayer.ipv4.Ipv4\""
par simpleBOLASetup.serverVID.ipv4.ip interfaceTableModule "\"simpleBOLASetup.serverVID.interfaceTable\""
par simpleBOLASetup.serverVID.ipv4.ip routingTableModule "\"simpleBOLASetup.serverVID.ipv4.routingTable\""
par simpleBOLASetup.serverVID.ipv4.ip arpModule "\"simpleBOLASetup.serverVID.ipv4.arp\""
par simpleBOLASetup.serverVID.ipv4.ip icmpModule "\"simpleBOLASetup.serverVID.ipv4.icmp\""
par simpleBOLASetup.serverVID.ipv4.ip crcMode "\"computed\""
attr enum declared,computed
par simpleBOLASetup.serverVID.ipv4.ip timeToLive 32
par simpleBOLASetup.serverVID.ipv4.ip multicastTimeToLive 32
par simpleBOLASetup.serverVID.ipv4.ip fragmentTimeout 60s
attr unit s
par simpleBOLASetup.serverVID.ipv4.ip limitedBroadcast false
par simpleBOLASetup.serverVID.ipv4.ip directBroadcastInterfaces "\"\""
scalar simpleBOLASetup.serverVID.ipv4.ip packetDropAddressResolutionFailed:count 0
attr interpolationmode none
attr recordingmode count
attr source packetDropReasonIsAddressResolutionFailed(packetDropped)
attr title "packet drop: address resolution failed, count"
scalar simpleBOLASetup.serverVID.ipv4.ip packetDropAddressResolutionFailed:sum(packetBytes) 0
attr interpolationmode none
attr recordingmode sum(packetBytes)
attr source packetDropReasonIsAddressResolutionFailed(packetDropped)
attr title "packet drop: address resolution failed, sum(packetBytes)"
scalar simpleBOLASetup.serverVID.ipv4.ip packetDropHopLimitReached:count 0
attr interpolationmode none
attr recordingmode count
attr source packetDropReasonIsHopLimitReached(packetDropped)
attr title "packet drop: hop limit reached, count"
scalar simpleBOLASetup.serverVID.ipv4.ip packetDropHopLimitReached:sum(packetBytes) 0
attr interpolationmode none
attr recordingmode sum(packetBytes)
attr source packetDropReasonIsHopLimitReached(packetDropped)
attr title "packet drop: hop limit reached, sum(packetBytes)"
scalar simpleBOLASetup.serverVID.ipv4.ip packetDropForwardingDisabled:count 0
attr interpolationmode none
attr recordingmode count
attr source packetDropReasonIsForwardingDisabled(packetDropped)
attr title "packet drop: forwarding disabled, count"
scalar simpleBOLASetup.serverVID.ipv4.ip packetDropForwardingDisabled:sum(packetBytes) 0
attr interpolationmode none
attr recordingmode sum(packetBytes)
attr source packetDropReasonIsForwardingDisabled(packetDropped)
attr title "packet drop: forwarding disabled, sum(packetBytes)"
scalar simpleBOLASetup.serverVID.ipv4.ip packetDropNoInterfaceFound:count 0
attr interpolationmode none
attr recordingmode count
attr source packetDropReasonIsNoInterfaceFound(packetDropped)
attr title "packet drop: no interface found, count"
scalar simpleBOLASetup.serverVID.ipv4.ip packetDropNoInterfaceFound:sum(packetBytes) 0
attr interpolationmode none
attr recordingmode sum(packetBytes)
attr source packetDropReasonIsNoInterfaceFound(packetDropped)
attr title "packet drop: no interface found, sum(packetBytes)"
scalar simpleBOLASetup.serverVID.ipv4.ip packetDropNoRouteFound:count 0
attr interpolationmode none
attr recordingmode count
attr source packetDropReasonIsNoRouteFound(packetDropped)
attr title "packet drop: no route found, count"
scalar simpleBOLASetup.serverVID.ipv4.ip packetDropNoRouteFound:sum(packetBytes) 0
attr interpolationmode none
attr recordingmode sum(packetBytes)
attr source packetDropReasonIsNoRouteFound(packetDropped)
attr title "packet drop: no route found, sum(packetBytes)"
scalar simpleBOLASetup.serverVID.ipv4.ip packetDropUndefined:count 0
attr interpolationmode none
attr recordingmode count
attr source packetDropReasonIsUndefined(packetDropped)
attr title "packet drop: undefined, count"
scalar simpleBOLASetup.serverVID.ipv4.ip packetDropUndefined:sum(packetBytes) 0
attr interpolationmode none
attr recordingmode sum(packetBytes)
attr source packetDropReasonIsUndefined(packetDropped)
attr title "packet drop: undefined, sum(packetBytes)"
par simpleBOLASetup.serverVID.ipv4.arp typename "\"inet.networklayer.arp.ipv4.Arp\""
par simpleBOLASetup.serverVID.ipv4.arp interfaceTableModule "\"simpleBOLASetup.serverVID.interfaceTable\""
par simpleBOLASetup.serverVID.ipv4.arp routingTableModule "\"simpleBOLASetup.serverVID.ipv4.routingTable\""
par simpleBOLASetup.serverVID.ipv4.arp retryTimeout 1s
attr unit s
par simpleBOLASetup.serverVID.ipv4.arp retryCount 3
par simpleBOLASetup.serverVID.ipv4.arp cacheTimeout 120s
attr unit s
par simpleBOLASetup.serverVID.ipv4.arp proxyArpInterfaces "\"\""
scalar simpleBOLASetup.serverVID.ipv4.arp arpResolutionFailed:count 0
attr recordingmode count
attr title "ARP failed resolutions, count"
scalar simpleBOLASetup.serverVID.ipv4.arp arpResolutionCompleted:count 0
attr recordingmode count
attr title "ARP completed resolutions, count"
scalar simpleBOLASetup.serverVID.ipv4.arp arpResolutionInitiated:count 0
attr recordingmode count
attr title "ARP initiated resolutions, count"
scalar simpleBOLASetup.serverVID.ipv4.arp arpReplySent:count 0
attr recordingmode count
attr source arpReplySent
attr title "ARP replies sent, count"
scalar simpleBOLASetup.serverVID.ipv4.arp arpReplySent:sum(packetBytes) 0
attr recordingmode sum(packetBytes)
attr source arpReplySent
attr title "ARP replies sent, sum(packetBytes)"
scalar simpleBOLASetup.serverVID.ipv4.arp arpRequestSent:count 0
attr recordingmode count
attr source arpRequestSent
attr title "ARP request sent, count"
scalar simpleBOLASetup.serverVID.ipv4.arp arpRequestSent:sum(packetBytes) 0
attr recordingmode sum(packetBytes)
attr source arpRequestSent
attr title "ARP request sent, sum(packetBytes)"
par simpleBOLASetup.serverVID.ipv4.lp typename "\"inet.common.MessageDispatcher\""
par simpleBOLASetup.serverVID.ipv4.lp displayStringTextFormat "\"processed %p pk (%l)\""
par simpleBOLASetup.serverVID.ipv4.lp forwardServiceRegistration true
par simpleBOLASetup.serverVID.ipv4.lp forwardProtocolRegistration true
par simpleBOLASetup.serverVID.ipv4 typename "\"inet.networklayer.ipv4.Ipv4NetworkLayer\""
par simpleBOLASetup.serverVID.ipv4 forwarding false
par simpleBOLASetup.serverVID.ipv4 multicastForwarding false
par simpleBOLASetup.serverVID.ipv4 interfaceTableModule "\"simpleBOLASetup.serverVID.interfaceTable\""
par simpleBOLASetup.serverVID.ipv4 displayStringTextFormat "\"%i\""
par simpleBOLASetup.serverVID.nl typename "\"inet.common.MessageDispatcher\""
par simpleBOLASetup.serverVID.nl displayStringTextFormat "\"processed %p pk (%l)\""
par simpleBOLASetup.serverVID.nl forwardServiceRegistration true
par simpleBOLASetup.serverVID.nl forwardProtocolRegistration true
par simpleBOLASetup.serverVID.udp.crcInsertion typename "\"inet.transportlayer.udp.UdpCrcInsertionHook\""
par simpleBOLASetup.serverVID.udp typename "\"inet.transportlayer.udp.Udp\""
par simpleBOLASetup.serverVID.udp interfaceTableModule "\"simpleBOLASetup.serverVID.interfaceTable\""
par simpleBOLASetup.serverVID.udp icmpModule "\"^.ipv4.icmp\""
par simpleBOLASetup.serverVID.udp icmpv6Module "\"^.ipv6.icmpv6\""
par simpleBOLASetup.serverVID.udp crcMode "\"computed\""
attr enum disabled,declared,computed
par simpleBOLASetup.serverVID.udp defaultMulticastLoop true
scalar simpleBOLASetup.serverVID.udp packetReceived:count 0
attr interpolationmode none
attr recordingmode count
attr source packetReceived
attr title "packets received, count"
scalar simpleBOLASetup.serverVID.udp packetReceived:sum(packetBytes) 0
attr interpolationmode none
attr recordingmode sum(packetBytes)
attr source packetReceived
attr title "packets received, sum(packetBytes)"
scalar simpleBOLASetup.serverVID.udp packetSent:count 0
attr interpolationmode none
attr recordingmode count
attr source packetSent
attr title "packets sent, count"
scalar simpleBOLASetup.serverVID.udp packetSent:sum(packetBytes) 0
attr interpolationmode none
attr recordingmode sum(packetBytes)
attr source packetSent
attr title "packets sent, sum(packetBytes)"
scalar simpleBOLASetup.serverVID.udp passedUpPk:count 0
attr interpolationmode none
attr recordingmode count
attr source packetSentToUpper
attr title "packets passed up, count"
scalar simpleBOLASetup.serverVID.udp droppedPkWrongPort:count 0
attr interpolationmode none
attr recordingmode count
attr source packetDropReasonIsNoPortFound(packetDropped)
attr title "packets dropped (wrong port), count"
scalar simpleBOLASetup.serverVID.udp droppedPkBadChecksum:count 0
attr interpolationmode none
attr recordingmode count
attr source packetDropReasonIsIncorrectlyReceived(packetDropped)
attr title "packets dropped (checksum error), count"
par simpleBOLASetup.serverVID.tcp.crcInsertion typename "\"inet.transportlayer.tcp_common.TcpCrcInsertionHook\""
par simpleBOLASetup.serverVID.tcp.conn-1 typename "\"inet.transportlayer.tcp.TcpConnection\""
par simpleBOLASetup.serverVID.tcp typename "\"inet.transportlayer.tcp.Tcp\""
par simpleBOLASetup.serverVID.tcp crcMode "\"computed\""
attr enum declared,computed
par simpleBOLASetup.serverVID.tcp advertisedWindow 65535
par simpleBOLASetup.serverVID.tcp delayedAcksEnabled false
par simpleBOLASetup.serverVID.tcp nagleEnabled true
par simpleBOLASetup.serverVID.tcp limitedTransmitEnabled false
par simpleBOLASetup.serverVID.tcp increasedIWEnabled false
par simpleBOLASetup.serverVID.tcp sackSupport false
par simpleBOLASetup.serverVID.tcp windowScalingSupport false
par simpleBOLASetup.serverVID.tcp windowScalingFactor -1
par simpleBOLASetup.serverVID.tcp timestampSupport false
par simpleBOLASetup.serverVID.tcp mss 1452
par simpleBOLASetup.serverVID.tcp msl 120s
attr unit s
par simpleBOLASetup.serverVID.tcp tcpAlgorithmClass "\"TcpReno\""
attr enum TcpVegas,TcpWestwood,TcpNewReno,TcpReno,TcpTahoe,TcpNoCongestionControl
par simpleBOLASetup.serverVID.tcp useDataNotification false
par simpleBOLASetup.serverVID.tcp dupthresh 3
par simpleBOLASetup.serverVID.tcp initialSsthresh 4294967295
par simpleBOLASetup.serverVID.tcp stopOperationExtraTime 0s
attr unit s
par simpleBOLASetup.serverVID.tcp stopOperationTimeout 2s
attr unit s
par simpleBOLASetup.serverVID.tcp ecnWillingness false
par simpleBOLASetup.serverVID.tcp dctcpGamma 0.0625
par simpleBOLASetup.serverVID.tn typename "\"inet.common.MessageDispatcher\""
par simpleBOLASetup.serverVID.tn displayStringTextFormat "\"processed %p pk (%l)\""
par simpleBOLASetup.serverVID.tn forwardServiceRegistration true
par simpleBOLASetup.serverVID.tn forwardProtocolRegistration true
par simpleBOLASetup.serverVID.app[0] typename "\"inet.applications.tcpapp.TcpGenericServerApp\""
par simpleBOLASetup.serverVID.app[0] localAddress "\"\""
par simpleBOLASetup.serverVID.app[0] localPort 1042
par simpleBOLASetup.serverVID.app[0] replyDelay 0s
attr unit s
par simpleBOLASetup.serverVID.app[0] stopOperationExtraTime -1s
attr unit s
par simpleBOLASetup.serverVID.app[0] stopOperationTimeout 2s
attr unit s
scalar simpleBOLASetup.serverVID.app[0] packetReceived:count 101
attr interpolationmode none
attr recordingmode count
attr source packetReceived
attr title "packets received, count"
scalar simpleBOLASetup.serverVID.app[0] packetReceived:sum(packetBytes) 20200
attr interpolationmode none
attr recordingmode sum(packetBytes)
attr source packetReceived
attr title "packets received, sum(packetBytes)"
statistic simpleBOLASetup.serverVID.app[0] endToEndDelay:histogram
field count 0
field mean nan
field stddev nan
field min nan
field max nan
field sum 0
field sqrsum 0
attr interpolationmode none
attr recordingmode histogram
attr source dataAge(packetReceived)
attr title "end-to-end delay"
attr unit s
bin	-inf	0
bin	0	0
bin	1	0
statistic simpleBOLASetup.serverVID.app[0] endToEndDelay:weightedHistogram
field count 0
field mean nan
field stddev nan
field min nan
field max nan
field weights 0
field weightedSum 0
field sqrSumWeights 0
field weightedSqrSum 0
attr interpolationmode none
attr recordingmode weightedHistogram
attr source dataAge(packetReceived)
attr title "end-to-end delay, weightedHistogram"
attr unit s
bin	-inf	0
bin	0	0
bin	1	0
scalar simpleBOLASetup.serverVID.app[0] packetSent:count 101
attr interpolationmode none
attr recordingmode count
attr source packetSent
attr title "packets sent, count"
scalar simpleBOLASetup.serverVID.app[0] packetSent:sum(packetBytes) 51001000
attr interpolationmode none
attr recordingmode sum(packetBytes)
attr source packetSent
attr title "packets sent, sum(packetBytes)"
par simpleBOLASetup.serverVID.at typename "\"inet.common.MessageDispatcher\""
par simpleBOLASetup.serverVID.at displayStringTextFormat "\"processed %p pk (%l)\""
par simpleBOLASetup.serverVID.at forwardServiceRegistration true
par simpleBOLASetup.serverVID.at forwardProtocolRegistration true
par simpleBOLASetup.serverVID typename "\"inet.node.inet.StandardHost\""
par simpleBOLASetup.serverVID hasStatus false
par simpleBOLASetup.serverVID osgModel "\"\""
par simpleBOLASetup.serverVID osgModelColor "\"\""
par simpleBOLASetup.serverVID canvasImage "\"\""
par simpleBOLASetup.serverVID canvasImageColor "\"\""
par simpleBOLASetup.serverVID recordPcap false
par simpleBOLASetup.serverVID numPcapRecorders 0
par simpleBOLASetup.serverVID numLoInterfaces 1
par simpleBOLASetup.serverVID numWlanInterfaces 0
par simpleBOLASetup.serverVID numEthInterfaces 0
par simpleBOLASetup.serverVID numPppInterfaces 0
par simpleBOLASetup.serverVID numTunInterfaces 0
par simpleBOLASetup.serverVID numVirtInterfaces 0
par simpleBOLASetup.serverVID fcsMode "\"declared\""
attr enum declared,computed
par simpleBOLASetup.serverVID hasIpv4 true
par simpleBOLASetup.serverVID hasIpv6 false
par simpleBOLASetup.serverVID hasGn false
par simpleBOLASetup.serverVID forwarding false
par simpleBOLASetup.serverVID multicastForwarding false
par simpleBOLASetup.serverVID hasUdp true
par simpleBOLASetup.serverVID hasTcp true
par simpleBOLASetup.serverVID hasSctp false
par simpleBOLASetup.serverVID numApps 1
par simpleBOLASetup typename "\"improved5gns.simulations.simpleBOLASetup\""
par simpleBOLASetup nVID 1

