version 3
run simpleBOLATest-0-20230411-16:48:22-84453
attr configname simpleBOLATest
attr datetime 20230411-16:48:22
attr datetimef 20230411-164822
attr experiment simpleBOLATest
attr inifile BOLASetup.ini
attr iterationvars ""
attr iterationvarsd ""
attr iterationvarsf ""
attr measurement ""
attr network simpleBOLASetup
attr processid 84453
attr repetition 0
attr replication #0
attr resultdir results
attr runnumber 0
attr seedset 0
config image-path ../../inet/images
config description "All five applications - base configuration without any resource allocation"
config network simpleBOLASetup
config sim-time-limit 280s
config output-vector-file results/simpleBOLATest/simpleBOLATest-0.vec
config output-scalar-file results/simpleBOLATest/simpleBOLATest-0.sca
config **.crcMode "\"computed\""
config *.hostVID[*].numApps 1
config **.hostVID[*].hasTcp true
config **.hostVID[*].app[0].typename improved5gns.apps.TCPVideoStreamCliAppV2lite
config **.hostVID[*].app[0].localAddress "\"\""
config **.hostVID[*].app[0].localPort -1
config **.hostVID[*].app[0].connectAddress "\"serverVID\""
config **.hostVID[*].app[0].connectPort 1042
config **.hostVID[*].app[0].dataTransferMode "\"object\""
config **.hostVID[*].app[0].startTime uniform(0.01s,1s)
config **.hostVID[*].app[0].stopTime -1s
config **.hostVID[*].app[0].idleInterval 1s
config **.hostVID[*].app[0].requestLength 200B
config **.hostVID[*].app[0].reconnectInterval 1s
config **.hostVID[*].app[0].numRequestsPerSession 1
config **.hostVID[*].app[0].thinkTime 1s
config **.hostVID[*].app[0].video_resolution "\"360 480 720 1080\""
config **.hostVID[*].app[0].manifest_size 100000
config **.hostVID[*].app[0].video_buffer_max_length 30s
config **.hostVID[*].app[0].video_duration int(uniform(120s,200s))
config **.hostVID[*].app[0].segment_length 5s
config **.hostVID[*].app[0].useFlexibleBitrate "\"flexible\""
config *.serverVID.hasTcp true
config *.serverVID.numApps 1
config *.serverVID.app[0].typename TcpGenericServerApp
config *.serverVID.app[0].localAddress "\"\""
config *.serverVID.app[0].localPort 1042
config *.serverVID.app[0].replyDelay 0s
config *.serverVID.app[0].stopOperationExtraTime -1s
config *.serverVID.app[0].stopOperationTimeout 2s
config sim-time-limit 250s
config num-rngs 1
config seed-0-mt 5
config output-scalar-file-append false
config record-eventlog false
config *.visualizer.*.interfaceTableVisualizer.displayInterfaceTables true
config **.tcp.typename Tcp
config **.udp.typename Udp
config **.packetCapacity 500
config **.tcp.advertisedWindow 65535
config **.tcp.delayedAcksEnabled false
config **.tcp.nagleEnabled true
config **.tcp.limitedTransmitEnabled false
config **.tcp.increasedIWEnabled false
config **.tcp.sackSupport false
config **.tcp.windowScalingSupport false
config **.tcp.timestampSupport false
config **.tcp.mss 1452
config **.tcp.tcpAlgorithmClass "\"TcpReno\""
config **.tcp.*.*.vector-recording true
config **.tcp.*.rtt.result-recording-modes +vector
config **.tcp.*.*.result-recording-modes -vector
config **.host*.app*.*.vector-recording true
config **.ppp.*xPk*.vector-recording true
config **.vector-recording false

vector 0 simpleBOLASetup.hostVID[0].app[0] numActiveSessions:vector ETV
attr interpolationmode sample-hold
attr recordingmode vector
attr source sum(connect)
attr title "number of active sessions"
vector 1 simpleBOLASetup.hostVID[0].app[0] DASHBufferLength:vector ETV
attr recordingmode vector
attr title "Video buffer length (in seconds)"
vector 2 simpleBOLASetup.hostVID[0].app[0] DASHVideoPlaybackPointer:vector ETV
attr recordingmode vector
attr title "Video playback pointer"
vector 3 simpleBOLASetup.hostVID[0].app[0] DASHVideoBitrate:vector ETV
attr recordingmode vector
attr title "Requested video bitrate"
vector 4 simpleBOLASetup.hostVID[0].app[0] DASHVideoResolution:vector ETV
attr recordingmode vector
attr title "Requested video resolution"
vector 5 simpleBOLASetup.hostVID[0].app[0] DASHVideoPlaybackStatus:vector ETV
attr recordingmode vector
attr title "Video playback status (playing=1, buffering=0)"
vector 6 simpleBOLASetup.hostVID[0].ppp[0].ppp txPk:vector(packetBytes) ETV
attr interpolationmode none
attr recordingmode vector(packetBytes)
attr source packetSentToLower
attr title "packets transmitted, packetBytes"
vector 7 simpleBOLASetup.router0.ppp[1].ppp rxPkOk:vector(packetBytes) ETV
attr interpolationmode none
attr recordingmode vector(packetBytes)
attr source rxPkOk
attr title "packets received OK, packetBytes"
vector 8 simpleBOLASetup.router0.ppp[0].ppp txPk:vector(packetBytes) ETV
attr interpolationmode none
attr recordingmode vector(packetBytes)
attr source packetSentToLower
attr title "packets transmitted, packetBytes"
vector 9 simpleBOLASetup.router1.ppp[0].ppp rxPkOk:vector(packetBytes) ETV
attr interpolationmode none
attr recordingmode vector(packetBytes)
attr source rxPkOk
attr title "packets received OK, packetBytes"
vector 10 simpleBOLASetup.router1.ppp[1].ppp txPk:vector(packetBytes) ETV
attr interpolationmode none
attr recordingmode vector(packetBytes)
attr source packetSentToLower
attr title "packets transmitted, packetBytes"
vector 11 simpleBOLASetup.serverVID.ppp[0].ppp rxPkOk:vector(packetBytes) ETV
attr interpolationmode none
attr recordingmode vector(packetBytes)
attr source rxPkOk
attr title "packets received OK, packetBytes"
vector 12 simpleBOLASetup.serverVID.ppp[0].ppp txPk:vector(packetBytes) ETV
attr interpolationmode none
attr recordingmode vector(packetBytes)
attr source packetSentToLower
attr title "packets transmitted, packetBytes"
vector 13 simpleBOLASetup.router1.ppp[1].ppp rxPkOk:vector(packetBytes) ETV
attr interpolationmode none
attr recordingmode vector(packetBytes)
attr source rxPkOk
attr title "packets received OK, packetBytes"
vector 14 simpleBOLASetup.router1.ppp[0].ppp txPk:vector(packetBytes) ETV
attr interpolationmode none
attr recordingmode vector(packetBytes)
attr source packetSentToLower
attr title "packets transmitted, packetBytes"
vector 15 simpleBOLASetup.router0.ppp[0].ppp rxPkOk:vector(packetBytes) ETV
attr interpolationmode none
attr recordingmode vector(packetBytes)
attr source rxPkOk
attr title "packets received OK, packetBytes"
vector 16 simpleBOLASetup.router0.ppp[1].ppp txPk:vector(packetBytes) ETV
attr interpolationmode none
attr recordingmode vector(packetBytes)
attr source packetSentToLower
attr title "packets transmitted, packetBytes"
vector 17 simpleBOLASetup.hostVID[0].ppp[0].ppp rxPkOk:vector(packetBytes) ETV
attr interpolationmode none
attr recordingmode vector(packetBytes)
attr source rxPkOk
attr title "packets received OK, packetBytes"
vector 18 simpleBOLASetup.hostVID[0].tcp.conn-8 rtt:vector ETV
attr interpolationmode sample-hold
attr recordingmode vector
vector 19 simpleBOLASetup.hostVID[0].app[0] endToEndDelay:vector ETV
attr interpolationmode none
attr recordingmode vector
attr source dataAge(packetReceived)
attr title "end-to-end delay"
attr unit s
vector 20 simpleBOLASetup.serverVID.tcp.conn-9 rtt:vector ETV
attr interpolationmode sample-hold
attr recordingmode vector
vector 21 simpleBOLASetup.hostVID[0].app[0] DASHReceivedBytes:vector ETV
attr recordingmode vector
attr title "Bytes received with last segment"
20	109	0.229779362863	4.348e-06
20	148	0.229783673263	4.3104e-06
20	214	0.229787983663	4.3104e-06
20	338	0.229792780463	4.7968e-06
20	586	0.229802374063	9.5936e-06
20	1082	0.229821561263	1.91872e-05
20	1956	0.229859935663	3.83744e-05
20	2089	0.229868591663	3.8592e-06
20	2242	0.229873457263	4.348e-06
20	3463	0.229927421263	5.3964e-05
20	3542	0.229931374863	1.5552e-06
20	3695	0.229936240463	4.348e-06
20	4916	0.229990204463	5.3964e-05
20	4995	0.229994158063	1.5552e-06
20	5148	0.229999023663	4.348e-06
20	6453	0.230052987663	5.3964e-05
20	7758	0.230106951663	5.3964e-05
20	8991	0.230160915663	5.3964e-05
20	9232	0.230173523663	3.0144e-06
20	9385	0.230178389263	4.348e-06
20	10690	0.230232353263	5.3964e-05
20	11995	0.230286317263	5.3964e-05
20	13228	0.230340281263	5.3964e-05
20	13469	0.230352889263	3.0144e-06
20	13622	0.230357754863	4.348e-06
20	14927	0.230411718863	5.3964e-05
20	16232	0.230465682863	5.3964e-05
20	17465	0.230519646863	5.3964e-05
20	17706	0.230532254863	3.0144e-06
20	17859	0.230537120463	4.348e-06
20	19164	0.230591084463	5.3964e-05
20	20469	0.230645048463	5.3964e-05
20	21702	0.230699012463	5.3964e-05
20	21935	0.230711620463	3.0144e-06
20	22001	5.229936202863	4.348e-06
20	22040	5.229940513263	4.3104e-06
20	22106	5.229944823663	4.3104e-06
20	22230	5.229949620463	4.7968e-06
20	22478	5.229959214063	9.5936e-06
20	22974	5.229978401263	1.91872e-05
20	23928	5.230016775663	3.83744e-05
20	25215	5.230070739663	5.3964e-05
20	26177	5.230115726063	3.0144e-06
20	26243	10.229936202863	4.348e-06
20	26282	10.229940513263	4.3104e-06
20	26348	10.229944823663	4.3104e-06
20	26472	10.229949620463	4.7968e-06
20	26720	10.229959214063	9.5936e-06
20	27216	10.229978401263	1.91872e-05
20	28170	10.230016775663	3.83744e-05
20	29457	10.230070739663	5.3964e-05
20	30419	10.230115726063	3.0144e-06
20	30485	15.229936202863	4.348e-06
20	30524	15.229940513263	4.3104e-06
20	30590	15.229944823663	4.3104e-06
20	30714	15.229949620463	4.7968e-06
20	30962	15.229959214063	9.5936e-06
20	31458	15.229978401263	1.91872e-05
20	32412	15.230016775663	3.83744e-05
20	33699	15.230070739663	5.3964e-05
20	34661	15.230115726063	3.0144e-06
20	34727	20.229936202863	4.348e-06
20	34766	20.229940513263	4.3104e-06
20	34832	20.229944823663	4.3104e-06
20	34956	20.229949620463	4.7968e-06
20	35204	20.229959214063	9.5936e-06
20	35700	20.229978401263	1.91872e-05
20	36654	20.230016775663	3.83744e-05
20	37941	20.230070739663	5.3964e-05
20	38903	20.230115726063	3.0144e-06
20	38969	25.229936202863	4.348e-06
20	39008	25.229940513263	4.3104e-06
20	39074	25.229944823663	4.3104e-06
20	39198	25.229949620463	4.7968e-06
20	39446	25.229959214063	9.5936e-06
20	39942	25.229978401263	1.91872e-05
20	40896	25.230016775663	3.83744e-05
20	42183	25.230070739663	5.3964e-05
20	43145	25.230115726063	3.0144e-06
20	43211	30.229936202863	4.348e-06
20	43250	30.229940513263	4.3104e-06
20	43316	30.229944823663	4.3104e-06
20	43440	30.229949620463	4.7968e-06
20	43688	30.229959214063	9.5936e-06
20	44184	30.229978401263	1.91872e-05
20	45138	30.230016775663	3.83744e-05
20	46425	30.230070739663	5.3964e-05
20	47387	30.230115726063	3.0144e-06
20	47453	35.229936202863	4.348e-06
20	47492	35.229940513263	4.3104e-06
20	47558	35.229944823663	4.3104e-06
20	47682	35.229949620463	4.7968e-06
20	47930	35.229959214063	9.5936e-06
20	48426	35.229978401263	1.91872e-05
20	49380	35.230016775663	3.83744e-05
20	50667	35.230070739663	5.3964e-05
20	51629	35.230115726063	3.0144e-06
20	51695	40.229936202863	4.348e-06
20	51734	40.229940513263	4.3104e-06
20	51800	40.229944823663	4.3104e-06
20	51924	40.229949620463	4.7968e-06
20	52172	40.229959214063	9.5936e-06
20	52668	40.229978401263	1.91872e-05
20	53622	40.230016775663	3.83744e-05
20	54909	40.230070739663	5.3964e-05
20	55871	40.230115726063	3.0144e-06
20	55937	45.229936202863	4.348e-06
20	55976	45.229940513263	4.3104e-06
20	56042	45.229944823663	4.3104e-06
20	56166	45.229949620463	4.7968e-06
20	56414	45.229959214063	9.5936e-06
20	56910	45.229978401263	1.91872e-05
20	57864	45.230016775663	3.83744e-05
20	59151	45.230070739663	5.3964e-05
20	60113	45.230115726063	3.0144e-06
20	60179	50.229936202863	4.348e-06
20	60218	50.229940513263	4.3104e-06
20	60284	50.229944823663	4.3104e-06
20	60408	50.229949620463	4.7968e-06
20	60656	50.229959214063	9.5936e-06
20	61152	50.229978401263	1.91872e-05
20	62106	50.230016775663	3.83744e-05
20	63393	50.230070739663	5.3964e-05
20	64355	50.230115726063	3.0144e-06
20	64421	55.229936202863	4.348e-06
20	64460	55.229940513263	4.3104e-06
20	64526	55.229944823663	4.3104e-06
20	64650	55.229949620463	4.7968e-06
20	64898	55.229959214063	9.5936e-06
20	65394	55.229978401263	1.91872e-05
20	66348	55.230016775663	3.83744e-05
20	67635	55.230070739663	5.3964e-05
20	68597	55.230115726063	3.0144e-06
20	68663	60.229936202863	4.348e-06
20	68702	60.229940513263	4.3104e-06
20	68768	60.229944823663	4.3104e-06
20	68892	60.229949620463	4.7968e-06
20	69140	60.229959214063	9.5936e-06
20	69636	60.229978401263	1.91872e-05
20	70590	60.230016775663	3.83744e-05
20	71877	60.230070739663	5.3964e-05
20	72839	60.230115726063	3.0144e-06
20	72905	65.229936202863	4.348e-06
20	72944	65.229940513263	4.3104e-06
20	73010	65.229944823663	4.3104e-06
20	73134	65.229949620463	4.7968e-06
20	73382	65.229959214063	9.5936e-06
20	73878	65.229978401263	1.91872e-05
20	74832	65.230016775663	3.83744e-05
20	76119	65.230070739663	5.3964e-05
20	77081	65.230115726063	3.0144e-06
20	77147	70.229936202863	4.348e-06
20	77186	70.229940513263	4.3104e-06
20	77252	70.229944823663	4.3104e-06
20	77376	70.229949620463	4.7968e-06
20	77624	70.229959214063	9.5936e-06
20	78120	70.229978401263	1.91872e-05
20	79074	70.230016775663	3.83744e-05
20	80361	70.230070739663	5.3964e-05
20	81323	70.230115726063	3.0144e-06
20	81389	75.229936202863	4.348e-06
20	81428	75.229940513263	4.3104e-06
20	81494	75.229944823663	4.3104e-06
20	81618	75.229949620463	4.7968e-06
20	81866	75.229959214063	9.5936e-06
20	82362	75.229978401263	1.91872e-05
20	83316	75.230016775663	3.83744e-05
20	84603	75.230070739663	5.3964e-05
20	85565	75.230115726063	3.0144e-06
20	85631	80.229936202863	4.348e-06
20	85670	80.229940513263	4.3104e-06
20	85736	80.229944823663	4.3104e-06
20	85860	80.229949620463	4.7968e-06
20	86108	80.229959214063	9.5936e-06
20	86604	80.229978401263	1.91872e-05
20	87558	80.230016775663	3.83744e-05
20	88845	80.230070739663	5.3964e-05
20	89807	80.230115726063	3.0144e-06
20	89873	85.229936202863	4.348e-06
20	89912	85.229940513263	4.3104e-06
20	89978	85.229944823663	4.3104e-06
20	90102	85.229949620463	4.7968e-06
20	90350	85.229959214063	9.5936e-06
20	90846	85.229978401263	1.91872e-05
20	91800	85.230016775663	3.83744e-05
20	93087	85.230070739663	5.3964e-05
20	94049	85.230115726063	3.0144e-06
20	94115	90.229936202863	4.348e-06
20	94154	90.229940513263	4.3104e-06
20	94220	90.229944823663	4.3104e-06
20	94344	90.229949620463	4.7968e-06
20	94592	90.229959214063	9.5936e-06
20	95088	90.229978401263	1.91872e-05
20	96042	90.230016775663	3.83744e-05
20	97329	90.230070739663	5.3964e-05
20	98291	90.230115726063	3.0144e-06
20	98357	95.229936202863	4.348e-06
20	98396	95.229940513263	4.3104e-06
20	98462	95.229944823663	4.3104e-06
20	98586	95.229949620463	4.7968e-06
20	98834	95.229959214063	9.5936e-06
20	99330	95.229978401263	1.91872e-05
20	100284	95.230016775663	3.83744e-05
20	101513	95.230070739663	5.3964e-05
20	101704	95.230081208463	3.2736e-06
vector 22 simpleBOLASetup.hostVID[0].tcp.conn-10 rtt:vector ETV
attr interpolationmode sample-hold
attr recordingmode vector
vector 23 simpleBOLASetup.serverVID.tcp.conn-11 rtt:vector ETV
attr interpolationmode sample-hold
attr recordingmode vector
23	101890	125.229937085263	4.348e-06
23	101929	125.229941395663	4.3104e-06
23	101995	125.229945706063	4.3104e-06
23	102119	125.229950502863	4.7968e-06
23	102367	125.229960096463	9.5936e-06
23	102833	125.229979283663	1.91872e-05
23	103290	125.230000026063	1.5552e-06
23	103443	125.230004891663	4.348e-06
23	104664	125.230058855663	5.3964e-05
23	104743	125.230062809263	1.5552e-06
23	104896	125.230067674863	4.348e-06
23	106201	125.230121638863	5.3964e-05
23	107506	125.230175602863	5.3964e-05
23	108739	125.230229566863	5.3964e-05
23	108980	125.230242174863	3.0144e-06
23	109133	125.230247040463	4.348e-06
23	110438	125.230301004463	5.3964e-05
23	111743	125.230354968463	5.3964e-05
23	112976	125.230408932463	5.3964e-05
23	113217	125.230421540463	3.0144e-06
23	113370	125.230426406063	4.348e-06
23	114675	125.230480370063	5.3964e-05
23	115980	125.230534334063	5.3964e-05
23	117213	125.230588298063	5.3964e-05
23	117454	125.230600906063	3.0144e-06
23	117607	125.230605771663	4.348e-06
23	118912	125.230659735663	5.3964e-05
23	120217	125.230713699663	5.3964e-05
23	121450	125.230767663663	5.3964e-05
23	121683	125.230780271663	3.0144e-06
23	121749	130.230004854063	4.348e-06
23	121788	130.230009164463	4.3104e-06
23	121854	130.230013474863	4.3104e-06
23	121978	130.230018271663	4.7968e-06
23	122226	130.230027865263	9.5936e-06
23	122722	130.230047052463	1.91872e-05
23	123676	130.230085426863	3.83744e-05
23	124963	130.230139390863	5.3964e-05
23	125925	130.230184377263	3.0144e-06
23	125991	135.230004854063	4.348e-06
23	126030	135.230009164463	4.3104e-06
23	126096	135.230013474863	4.3104e-06
23	126220	135.230018271663	4.7968e-06
23	126468	135.230027865263	9.5936e-06
23	126964	135.230047052463	1.91872e-05
23	127918	135.230085426863	3.83744e-05
23	129205	135.230139390863	5.3964e-05
23	130167	135.230184377263	3.0144e-06
23	130233	140.230004854063	4.348e-06
23	130272	140.230009164463	4.3104e-06
23	130338	140.230013474863	4.3104e-06
23	130462	140.230018271663	4.7968e-06
23	130710	140.230027865263	9.5936e-06
23	131206	140.230047052463	1.91872e-05
23	132160	140.230085426863	3.83744e-05
23	133447	140.230139390863	5.3964e-05
23	134409	140.230184377263	3.0144e-06
23	134475	145.230004854063	4.348e-06
23	134514	145.230009164463	4.3104e-06
23	134580	145.230013474863	4.3104e-06
23	134704	145.230018271663	4.7968e-06
23	134952	145.230027865263	9.5936e-06
23	135448	145.230047052463	1.91872e-05
23	136402	145.230085426863	3.83744e-05
23	137689	145.230139390863	5.3964e-05
23	138651	145.230184377263	3.0144e-06
23	138717	150.230004854063	4.348e-06
23	138756	150.230009164463	4.3104e-06
23	138822	150.230013474863	4.3104e-06
23	138946	150.230018271663	4.7968e-06
23	139194	150.230027865263	9.5936e-06
23	139690	150.230047052463	1.91872e-05
23	140644	150.230085426863	3.83744e-05
23	141931	150.230139390863	5.3964e-05
23	142893	150.230184377263	3.0144e-06
23	142959	155.230004854063	4.348e-06
23	142998	155.230009164463	4.3104e-06
23	143064	155.230013474863	4.3104e-06
23	143188	155.230018271663	4.7968e-06
23	143436	155.230027865263	9.5936e-06
23	143932	155.230047052463	1.91872e-05
23	144886	155.230085426863	3.83744e-05
23	146173	155.230139390863	5.3964e-05
23	147135	155.230184377263	3.0144e-06
23	147201	160.230004854063	4.348e-06
23	147240	160.230009164463	4.3104e-06
23	147306	160.230013474863	4.3104e-06
23	147430	160.230018271663	4.7968e-06
23	147678	160.230027865263	9.5936e-06
23	148174	160.230047052463	1.91872e-05
23	149128	160.230085426863	3.83744e-05
23	150415	160.230139390863	5.3964e-05
23	151377	160.230184377263	3.0144e-06
23	151443	165.230004854063	4.348e-06
23	151482	165.230009164463	4.3104e-06
23	151548	165.230013474863	4.3104e-06
23	151672	165.230018271663	4.7968e-06
23	151920	165.230027865263	9.5936e-06
23	152416	165.230047052463	1.91872e-05
23	153370	165.230085426863	3.83744e-05
23	154657	165.230139390863	5.3964e-05
23	155619	165.230184377263	3.0144e-06
23	155685	170.230004854063	4.348e-06
23	155724	170.230009164463	4.3104e-06
23	155790	170.230013474863	4.3104e-06
23	155914	170.230018271663	4.7968e-06
23	156162	170.230027865263	9.5936e-06
23	156658	170.230047052463	1.91872e-05
23	157612	170.230085426863	3.83744e-05
23	158899	170.230139390863	5.3964e-05
23	159861	170.230184377263	3.0144e-06
23	159927	175.230004854063	4.348e-06
23	159966	175.230009164463	4.3104e-06
23	160032	175.230013474863	4.3104e-06
23	160156	175.230018271663	4.7968e-06
23	160404	175.230027865263	9.5936e-06
23	160900	175.230047052463	1.91872e-05
23	161854	175.230085426863	3.83744e-05
23	163141	175.230139390863	5.3964e-05
23	164103	175.230184377263	3.0144e-06
23	164169	180.230004854063	4.348e-06
23	164208	180.230009164463	4.3104e-06
23	164274	180.230013474863	4.3104e-06
23	164398	180.230018271663	4.7968e-06
23	164646	180.230027865263	9.5936e-06
23	165142	180.230047052463	1.91872e-05
23	166096	180.230085426863	3.83744e-05
23	167383	180.230139390863	5.3964e-05
23	168345	180.230184377263	3.0144e-06
23	168411	185.230004854063	4.348e-06
23	168450	185.230009164463	4.3104e-06
23	168516	185.230013474863	4.3104e-06
23	168640	185.230018271663	4.7968e-06
23	168888	185.230027865263	9.5936e-06
23	169384	185.230047052463	1.91872e-05
23	170338	185.230085426863	3.83744e-05
23	171625	185.230139390863	5.3964e-05
23	172587	185.230184377263	3.0144e-06
23	172653	190.230004854063	4.348e-06
23	172692	190.230009164463	4.3104e-06
23	172758	190.230013474863	4.3104e-06
23	172882	190.230018271663	4.7968e-06
23	173130	190.230027865263	9.5936e-06
23	173626	190.230047052463	1.91872e-05
23	174580	190.230085426863	3.83744e-05
23	175867	190.230139390863	5.3964e-05
23	176829	190.230184377263	3.0144e-06
23	176895	195.230004854063	4.348e-06
23	176934	195.230009164463	4.3104e-06
23	177000	195.230013474863	4.3104e-06
23	177124	195.230018271663	4.7968e-06
23	177372	195.230027865263	9.5936e-06
23	177868	195.230047052463	1.91872e-05
23	178822	195.230085426863	3.83744e-05
23	180109	195.230139390863	5.3964e-05
23	181071	195.230184377263	3.0144e-06
23	181137	200.230004854063	4.348e-06
23	181176	200.230009164463	4.3104e-06
23	181242	200.230013474863	4.3104e-06
23	181366	200.230018271663	4.7968e-06
23	181614	200.230027865263	9.5936e-06
23	182110	200.230047052463	1.91872e-05
23	183064	200.230085426863	3.83744e-05
23	184351	200.230139390863	5.3964e-05
23	185313	200.230184377263	3.0144e-06
23	185379	205.230004854063	4.348e-06
23	185418	205.230009164463	4.3104e-06
23	185484	205.230013474863	4.3104e-06
23	185608	205.230018271663	4.7968e-06
23	185856	205.230027865263	9.5936e-06
23	186352	205.230047052463	1.91872e-05
23	187306	205.230085426863	3.83744e-05
23	188593	205.230139390863	5.3964e-05
23	189555	205.230184377263	3.0144e-06
23	189621	210.230004854063	4.348e-06
23	189660	210.230009164463	4.3104e-06
23	189726	210.230013474863	4.3104e-06
23	189850	210.230018271663	4.7968e-06
23	190098	210.230027865263	9.5936e-06
23	190594	210.230047052463	1.91872e-05
23	191548	210.230085426863	3.83744e-05
23	192835	210.230139390863	5.3964e-05
23	193797	210.230184377263	3.0144e-06
23	193863	215.230004854063	4.348e-06
23	193902	215.230009164463	4.3104e-06
23	193968	215.230013474863	4.3104e-06
23	194092	215.230018271663	4.7968e-06
23	194340	215.230027865263	9.5936e-06
23	194836	215.230047052463	1.91872e-05
23	195790	215.230085426863	3.83744e-05
23	197077	215.230139390863	5.3964e-05
23	198039	215.230184377263	3.0144e-06
23	198105	220.230004854063	4.348e-06
23	198144	220.230009164463	4.3104e-06
23	198210	220.230013474863	4.3104e-06
23	198334	220.230018271663	4.7968e-06
23	198582	220.230027865263	9.5936e-06
23	199078	220.230047052463	1.91872e-05
23	200032	220.230085426863	3.83744e-05
23	201261	220.230139390863	5.3964e-05
23	201452	220.230149859663	3.2736e-06
vector 24 simpleBOLASetup.hostVID[0].tcp.conn-12 rtt:vector ETV
attr interpolationmode sample-hold
attr recordingmode vector
vector 25 simpleBOLASetup.serverVID.tcp.conn-13 rtt:vector ETV
attr interpolationmode sample-hold
attr recordingmode vector
0	0	0	0
0	2	0.229773239663	1
0	101678	95.230080795663	0
0	101783	125.229930962063	1
0	201426	220.230149446863	0
0	201531	250.229999613263	1
1	0	0	0
1	3520	0.229930962063	5
1	4973	0.229993745263	10
1	9210	0.230173110863	15
1	13447	0.230352476463	20
1	17684	0.230531842063	25
1	21921	0.230711207663	30
1	21936	1.229930962063	29
1	21937	2.229930962063	28
1	21938	3.229930962063	27
1	21939	4.229930962063	26
1	21940	5.229930962063	25
1	26163	5.230115313263	30
1	26178	6.229930962063	29
1	26179	7.229930962063	28
1	26180	8.229930962063	27
1	26181	9.229930962063	26
1	26182	10.229930962063	25
1	30405	10.230115313263	30
1	30420	11.229930962063	29
1	30421	12.229930962063	28
1	30422	13.229930962063	27
1	30423	14.229930962063	26
1	30424	15.229930962063	25
1	34647	15.230115313263	30
1	34662	16.229930962063	29
1	34663	17.229930962063	28
1	34664	18.229930962063	27
1	34665	19.229930962063	26
1	34666	20.229930962063	25
1	38889	20.230115313263	30
1	38904	21.229930962063	29
1	38905	22.229930962063	28
1	38906	23.229930962063	27
1	38907	24.229930962063	26
1	38908	25.229930962063	25
1	43131	25.230115313263	30
1	43146	26.229930962063	29
1	43147	27.229930962063	28
1	43148	28.229930962063	27
1	43149	29.229930962063	26
1	43150	30.229930962063	25
1	47373	30.230115313263	30
1	47388	31.229930962063	29
1	47389	32.229930962063	28
1	47390	33.229930962063	27
1	47391	34.229930962063	26
1	47392	35.229930962063	25
1	51615	35.230115313263	30
1	51630	36.229930962063	29
1	51631	37.229930962063	28
1	51632	38.229930962063	27
1	51633	39.229930962063	26
1	51634	40.229930962063	25
1	55857	40.230115313263	30
1	55872	41.229930962063	29
1	55873	42.229930962063	28
1	55874	43.229930962063	27
1	55875	44.229930962063	26
1	55876	45.229930962063	25
1	60099	45.230115313263	30
1	60114	46.229930962063	29
1	60115	47.229930962063	28
1	60116	48.229930962063	27
1	60117	49.229930962063	26
1	60118	50.229930962063	25
1	64341	50.230115313263	30
1	64356	51.229930962063	29
1	64357	52.229930962063	28
1	64358	53.229930962063	27
1	64359	54.229930962063	26
1	64360	55.229930962063	25
1	68583	55.230115313263	30
1	68598	56.229930962063	29
1	68599	57.229930962063	28
1	68600	58.229930962063	27
1	68601	59.229930962063	26
1	68602	60.229930962063	25
1	72825	60.230115313263	30
1	72840	61.229930962063	29
1	72841	62.229930962063	28
1	72842	63.229930962063	27
1	72843	64.229930962063	26
1	72844	65.229930962063	25
1	77067	65.230115313263	30
1	77082	66.229930962063	29
1	77083	67.229930962063	28
1	77084	68.229930962063	27
1	77085	69.229930962063	26
1	77086	70.229930962063	25
1	81309	70.230115313263	30
1	81324	71.229930962063	29
1	81325	72.229930962063	28
1	81326	73.229930962063	27
1	81327	74.229930962063	26
1	81328	75.229930962063	25
1	85551	75.230115313263	30
1	85566	76.229930962063	29
1	85567	77.229930962063	28
1	85568	78.229930962063	27
1	85569	79.229930962063	26
1	85570	80.229930962063	25
1	89793	80.230115313263	30
1	89808	81.229930962063	29
1	89809	82.229930962063	28
1	89810	83.229930962063	27
1	89811	84.229930962063	26
1	89812	85.229930962063	25
1	94035	85.230115313263	30
1	94050	86.229930962063	29
1	94051	87.229930962063	28
1	94052	88.229930962063	27
1	94053	89.229930962063	26
1	94054	90.229930962063	25
1	98277	90.230115313263	30
1	98292	91.229930962063	29
1	98293	92.229930962063	28
1	98294	93.229930962063	27
1	98295	94.229930962063	26
1	98296	95.229930962063	25
1	101678	95.230080795663	29
1	101754	96.229930962063	28
1	101755	97.229930962063	27
1	101756	98.229930962063	26
1	101757	99.229930962063	25
1	101758	100.229930962063	24
1	101759	101.229930962063	23
1	101760	102.229930962063	22
1	101761	103.229930962063	21
1	101762	104.229930962063	20
1	101763	105.229930962063	19
1	101764	106.229930962063	18
1	101765	107.229930962063	17
1	101766	108.229930962063	16
1	101767	109.229930962063	15
1	101768	110.229930962063	14
1	101769	111.229930962063	13
1	101770	112.229930962063	12
1	101771	113.229930962063	11
1	101772	114.229930962063	10
1	101773	115.229930962063	9
1	101774	116.229930962063	8
1	101775	117.229930962063	7
1	101776	118.229930962063	6
1	101777	119.229930962063	5
1	101778	120.229930962063	4
1	101779	121.229930962063	3
1	101780	122.229930962063	2
1	101781	123.229930962063	1
1	101782	124.229930962063	0
1	101782	124.229930962063	0
1	103268	125.229999613263	5
1	104721	125.230062396463	10
1	108958	125.230241762063	15
1	113195	125.230421127663	20
1	117432	125.230600493263	25
1	121669	125.230779858863	30
1	121684	126.229999613263	29
1	121685	127.229999613263	28
1	121686	128.229999613263	27
1	121687	129.229999613263	26
1	121688	130.229999613263	25
1	125911	130.230183964463	30
1	125926	131.229999613263	29
1	125927	132.229999613263	28
1	125928	133.229999613263	27
1	125929	134.229999613263	26
1	125930	135.229999613263	25
1	130153	135.230183964463	30
1	130168	136.229999613263	29
1	130169	137.229999613263	28
1	130170	138.229999613263	27
1	130171	139.229999613263	26
1	130172	140.229999613263	25
1	134395	140.230183964463	30
1	134410	141.229999613263	29
1	134411	142.229999613263	28
1	134412	143.229999613263	27
1	134413	144.229999613263	26
1	134414	145.229999613263	25
1	138637	145.230183964463	30
1	138652	146.229999613263	29
1	138653	147.229999613263	28
1	138654	148.229999613263	27
1	138655	149.229999613263	26
1	138656	150.229999613263	25
1	142879	150.230183964463	30
1	142894	151.229999613263	29
1	142895	152.229999613263	28
1	142896	153.229999613263	27
1	142897	154.229999613263	26
1	142898	155.229999613263	25
1	147121	155.230183964463	30
1	147136	156.229999613263	29
1	147137	157.229999613263	28
1	147138	158.229999613263	27
1	147139	159.229999613263	26
1	147140	160.229999613263	25
1	151363	160.230183964463	30
1	151378	161.229999613263	29
1	151379	162.229999613263	28
1	151380	163.229999613263	27
1	151381	164.229999613263	26
1	151382	165.229999613263	25
1	155605	165.230183964463	30
1	155620	166.229999613263	29
1	155621	167.229999613263	28
1	155622	168.229999613263	27
1	155623	169.229999613263	26
1	155624	170.229999613263	25
1	159847	170.230183964463	30
1	159862	171.229999613263	29
1	159863	172.229999613263	28
1	159864	173.229999613263	27
1	159865	174.229999613263	26
1	159866	175.229999613263	25
1	164089	175.230183964463	30
1	164104	176.229999613263	29
1	164105	177.229999613263	28
1	164106	178.229999613263	27
1	164107	179.229999613263	26
1	164108	180.229999613263	25
1	168331	180.230183964463	30
1	168346	181.229999613263	29
1	168347	182.229999613263	28
1	168348	183.229999613263	27
1	168349	184.229999613263	26
1	168350	185.229999613263	25
1	172573	185.230183964463	30
1	172588	186.229999613263	29
1	172589	187.229999613263	28
1	172590	188.229999613263	27
1	172591	189.229999613263	26
1	172592	190.229999613263	25
1	176815	190.230183964463	30
1	176830	191.229999613263	29
1	176831	192.229999613263	28
1	176832	193.229999613263	27
1	176833	194.229999613263	26
1	176834	195.229999613263	25
1	181057	195.230183964463	30
1	181072	196.229999613263	29
1	181073	197.229999613263	28
1	181074	198.229999613263	27
1	181075	199.229999613263	26
1	181076	200.229999613263	25
1	185299	200.230183964463	30
1	185314	201.229999613263	29
1	185315	202.229999613263	28
1	185316	203.229999613263	27
1	185317	204.229999613263	26
1	185318	205.229999613263	25
1	189541	205.230183964463	30
1	189556	206.229999613263	29
1	189557	207.229999613263	28
1	189558	208.229999613263	27
1	189559	209.229999613263	26
1	189560	210.229999613263	25
1	193783	210.230183964463	30
1	193798	211.229999613263	29
1	193799	212.229999613263	28
1	193800	213.229999613263	27
1	193801	214.229999613263	26
1	193802	215.229999613263	25
1	198025	215.230183964463	30
1	198040	216.229999613263	29
1	198041	217.229999613263	28
1	198042	218.229999613263	27
1	198043	219.229999613263	26
1	198044	220.229999613263	25
1	201426	220.230149446863	29
1	201502	221.229999613263	28
1	201503	222.229999613263	27
1	201504	223.229999613263	26
1	201505	224.229999613263	25
1	201506	225.229999613263	24
1	201507	226.229999613263	23
1	201508	227.229999613263	22
1	201509	228.229999613263	21
1	201510	229.229999613263	20
1	201511	230.229999613263	19
1	201512	231.229999613263	18
1	201513	232.229999613263	17
1	201514	233.229999613263	16
1	201515	234.229999613263	15
1	201516	235.229999613263	14
1	201517	236.229999613263	13
1	201518	237.229999613263	12
1	201519	238.229999613263	11
1	201520	239.229999613263	10
1	201521	240.229999613263	9
1	201522	241.229999613263	8
1	201523	242.229999613263	7
1	201524	243.229999613263	6
1	201525	244.229999613263	5
1	201526	245.229999613263	4
1	201527	246.229999613263	3
1	201528	247.229999613263	2
1	201529	248.229999613263	1
1	201530	249.229999613263	0
1	201530	249.229999613263	0
1	203016	250.230068264463	5
1	204469	250.230131047663	10
1	208706	250.230310413263	15
1	212943	250.230489778863	20
1	217180	250.230669144463	25
1	221417	250.230848510063	30
1	221432	251.230068264463	29
1	221433	252.230068264463	28
1	221434	253.230068264463	27
1	221435	254.230068264463	26
1	221436	255.230068264463	25
1	225659	255.230252615663	30
1	225674	256.230068264463	29
1	225675	257.230068264463	28
1	225676	258.230068264463	27
1	225677	259.230068264463	26
1	225678	260.230068264463	25
1	229901	260.230252615663	30
1	229916	261.230068264463	29
1	229917	262.230068264463	28
1	229918	263.230068264463	27
1	229919	264.230068264463	26
1	229920	265.230068264463	25
1	234143	265.230252615663	30
1	234158	266.230068264463	29
1	234159	267.230068264463	28
1	234160	268.230068264463	27
1	234161	269.230068264463	26
1	234162	270.230068264463	25
1	238385	270.230252615663	30
1	238400	271.230068264463	29
1	238401	272.230068264463	28
1	238402	273.230068264463	27
1	238403	274.230068264463	26
1	238404	275.230068264463	25
1	242627	275.230252615663	30
1	242642	276.230068264463	29
1	242643	277.230068264463	28
1	242644	278.230068264463	27
1	242645	279.230068264463	26
2	0	0	0
2	21936	1.229930962063	1
2	21937	2.229930962063	2
2	21938	3.229930962063	3
2	21939	4.229930962063	4
2	21940	5.229930962063	5
2	26178	6.229930962063	6
2	26179	7.229930962063	7
2	26180	8.229930962063	8
2	26181	9.229930962063	9
2	26182	10.229930962063	10
2	30420	11.229930962063	11
2	30421	12.229930962063	12
2	30422	13.229930962063	13
2	30423	14.229930962063	14
2	30424	15.229930962063	15
2	34662	16.229930962063	16
2	34663	17.229930962063	17
2	34664	18.229930962063	18
2	34665	19.229930962063	19
2	34666	20.229930962063	20
2	38904	21.229930962063	21
2	38905	22.229930962063	22
2	38906	23.229930962063	23
2	38907	24.229930962063	24
2	38908	25.229930962063	25
2	43146	26.229930962063	26
2	43147	27.229930962063	27
2	43148	28.229930962063	28
2	43149	29.229930962063	29
2	43150	30.229930962063	30
2	47388	31.229930962063	31
2	47389	32.229930962063	32
2	47390	33.229930962063	33
2	47391	34.229930962063	34
2	47392	35.229930962063	35
2	51630	36.229930962063	36
2	51631	37.229930962063	37
2	51632	38.229930962063	38
2	51633	39.229930962063	39
2	51634	40.229930962063	40
2	55872	41.229930962063	41
2	55873	42.229930962063	42
2	55874	43.229930962063	43
2	55875	44.229930962063	44
2	55876	45.229930962063	45
2	60114	46.229930962063	46
2	60115	47.229930962063	47
2	60116	48.229930962063	48
2	60117	49.229930962063	49
2	60118	50.229930962063	50
2	64356	51.229930962063	51
2	64357	52.229930962063	52
2	64358	53.229930962063	53
2	64359	54.229930962063	54
2	64360	55.229930962063	55
2	68598	56.229930962063	56
2	68599	57.229930962063	57
2	68600	58.229930962063	58
2	68601	59.229930962063	59
2	68602	60.229930962063	60
2	72840	61.229930962063	61
2	72841	62.229930962063	62
2	72842	63.229930962063	63
2	72843	64.229930962063	64
2	72844	65.229930962063	65
2	77082	66.229930962063	66
2	77083	67.229930962063	67
2	77084	68.229930962063	68
2	77085	69.229930962063	69
2	77086	70.229930962063	70
2	81324	71.229930962063	71
2	81325	72.229930962063	72
2	81326	73.229930962063	73
2	81327	74.229930962063	74
2	81328	75.229930962063	75
2	85566	76.229930962063	76
2	85567	77.229930962063	77
2	85568	78.229930962063	78
2	85569	79.229930962063	79
2	85570	80.229930962063	80
2	89808	81.229930962063	81
2	89809	82.229930962063	82
2	89810	83.229930962063	83
2	89811	84.229930962063	84
2	89812	85.229930962063	85
2	94050	86.229930962063	86
2	94051	87.229930962063	87
2	94052	88.229930962063	88
2	94053	89.229930962063	89
2	94054	90.229930962063	90
2	98292	91.229930962063	91
2	98293	92.229930962063	92
2	98294	93.229930962063	93
2	98295	94.229930962063	94
2	98296	95.229930962063	95
2	101754	96.229930962063	96
2	101755	97.229930962063	97
2	101756	98.229930962063	98
2	101757	99.229930962063	99
2	101758	100.229930962063	100
2	101759	101.229930962063	101
2	101760	102.229930962063	102
2	101761	103.229930962063	103
2	101762	104.229930962063	104
2	101763	105.229930962063	105
2	101764	106.229930962063	106
2	101765	107.229930962063	107
2	101766	108.229930962063	108
2	101767	109.229930962063	109
2	101768	110.229930962063	110
2	101769	111.229930962063	111
2	101770	112.229930962063	112
2	101771	113.229930962063	113
2	101772	114.229930962063	114
2	101773	115.229930962063	115
2	101774	116.229930962063	116
2	101775	117.229930962063	117
2	101776	118.229930962063	118
2	101777	119.229930962063	119
2	101778	120.229930962063	120
2	101779	121.229930962063	121
2	101780	122.229930962063	122
2	101781	123.229930962063	123
2	101782	124.229930962063	124
2	101782	124.229930962063	0
2	121684	126.229999613263	1
2	121685	127.229999613263	2
2	121686	128.229999613263	3
2	121687	129.229999613263	4
2	121688	130.229999613263	5
2	125926	131.229999613263	6
2	125927	132.229999613263	7
2	125928	133.229999613263	8
2	125929	134.229999613263	9
2	125930	135.229999613263	10
2	130168	136.229999613263	11
2	130169	137.229999613263	12
2	130170	138.229999613263	13
2	130171	139.229999613263	14
2	130172	140.229999613263	15
2	134410	141.229999613263	16
2	134411	142.229999613263	17
2	134412	143.229999613263	18
2	134413	144.229999613263	19
2	134414	145.229999613263	20
2	138652	146.229999613263	21
2	138653	147.229999613263	22
2	138654	148.229999613263	23
2	138655	149.229999613263	24
2	138656	150.229999613263	25
2	142894	151.229999613263	26
2	142895	152.229999613263	27
2	142896	153.229999613263	28
2	142897	154.229999613263	29
2	142898	155.229999613263	30
2	147136	156.229999613263	31
2	147137	157.229999613263	32
2	147138	158.229999613263	33
2	147139	159.229999613263	34
2	147140	160.229999613263	35
2	151378	161.229999613263	36
2	151379	162.229999613263	37
2	151380	163.229999613263	38
2	151381	164.229999613263	39
2	151382	165.229999613263	40
2	155620	166.229999613263	41
2	155621	167.229999613263	42
2	155622	168.229999613263	43
2	155623	169.229999613263	44
2	155624	170.229999613263	45
2	159862	171.229999613263	46
2	159863	172.229999613263	47
2	159864	173.229999613263	48
2	159865	174.229999613263	49
2	159866	175.229999613263	50
2	164104	176.229999613263	51
2	164105	177.229999613263	52
2	164106	178.229999613263	53
2	164107	179.229999613263	54
2	164108	180.229999613263	55
2	168346	181.229999613263	56
2	168347	182.229999613263	57
2	168348	183.229999613263	58
2	168349	184.229999613263	59
2	168350	185.229999613263	60
2	172588	186.229999613263	61
2	172589	187.229999613263	62
2	172590	188.229999613263	63
2	172591	189.229999613263	64
2	172592	190.229999613263	65
2	176830	191.229999613263	66
2	176831	192.229999613263	67
2	176832	193.229999613263	68
2	176833	194.229999613263	69
2	176834	195.229999613263	70
2	181072	196.229999613263	71
2	181073	197.229999613263	72
2	181074	198.229999613263	73
2	181075	199.229999613263	74
2	181076	200.229999613263	75
2	185314	201.229999613263	76
2	185315	202.229999613263	77
2	185316	203.229999613263	78
2	185317	204.229999613263	79
2	185318	205.229999613263	80
2	189556	206.229999613263	81
2	189557	207.229999613263	82
2	189558	208.229999613263	83
2	189559	209.229999613263	84
2	189560	210.229999613263	85
2	193798	211.229999613263	86
2	193799	212.229999613263	87
2	193800	213.229999613263	88
2	193801	214.229999613263	89
2	193802	215.229999613263	90
2	198040	216.229999613263	91
2	198041	217.229999613263	92
2	198042	218.229999613263	93
2	198043	219.229999613263	94
2	198044	220.229999613263	95
2	201502	221.229999613263	96
2	201503	222.229999613263	97
2	201504	223.229999613263	98
2	201505	224.229999613263	99
2	201506	225.229999613263	100
2	201507	226.229999613263	101
2	201508	227.229999613263	102
2	201509	228.229999613263	103
2	201510	229.229999613263	104
2	201511	230.229999613263	105
2	201512	231.229999613263	106
2	201513	232.229999613263	107
2	201514	233.229999613263	108
2	201515	234.229999613263	109
2	201516	235.229999613263	110
2	201517	236.229999613263	111
2	201518	237.229999613263	112
2	201519	238.229999613263	113
2	201520	239.229999613263	114
2	201521	240.229999613263	115
2	201522	241.229999613263	116
2	201523	242.229999613263	117
2	201524	243.229999613263	118
2	201525	244.229999613263	119
2	201526	245.229999613263	120
2	201527	246.229999613263	121
2	201528	247.229999613263	122
2	201529	248.229999613263	123
2	201530	249.229999613263	124
2	201530	249.229999613263	0
2	221432	251.230068264463	1
2	221433	252.230068264463	2
2	221434	253.230068264463	3
2	221435	254.230068264463	4
2	221436	255.230068264463	5
2	225674	256.230068264463	6
2	225675	257.230068264463	7
2	225676	258.230068264463	8
2	225677	259.230068264463	9
2	225678	260.230068264463	10
2	229916	261.230068264463	11
2	229917	262.230068264463	12
2	229918	263.230068264463	13
2	229919	264.230068264463	14
2	229920	265.230068264463	15
2	234158	266.230068264463	16
2	234159	267.230068264463	17
2	234160	268.230068264463	18
2	234161	269.230068264463	19
2	234162	270.230068264463	20
2	238400	271.230068264463	21
2	238401	272.230068264463	22
2	238402	273.230068264463	23
2	238403	274.230068264463	24
2	238404	275.230068264463	25
2	242642	276.230068264463	26
2	242643	277.230068264463	27
2	242644	278.230068264463	28
2	242645	279.230068264463	29
3	0	0	112
3	2069	0.229868178863	112
3	3522	0.229930962063	112
3	4975	0.229993745263	336
3	9212	0.230173110863	336
3	13449	0.230352476463	336
3	17686	0.230531842063	336
3	21941	5.229930962063	336
3	26183	10.229930962063	336
3	30425	15.229930962063	336
3	34667	20.229930962063	336
3	38909	25.229930962063	336
3	43151	30.229930962063	336
3	47393	35.229930962063	336
3	51635	40.229930962063	336
3	55877	45.229930962063	336
3	60119	50.229930962063	336
3	64361	55.229930962063	336
3	68603	60.229930962063	336
3	72845	65.229930962063	336
3	77087	70.229930962063	336
3	81329	75.229930962063	336
3	85571	80.229930962063	336
3	89813	85.229930962063	336
3	94055	90.229930962063	336
3	98297	95.229930962063	336
3	101814	125.229931806863	112
3	103270	125.229999613263	112
3	104723	125.230062396463	336
3	108960	125.230241762063	336
3	113197	125.230421127663	336
3	117434	125.230600493263	336
3	121689	130.229999613263	336
3	125931	135.229999613263	336
3	130173	140.229999613263	336
3	134415	145.229999613263	336
3	138657	150.229999613263	336
3	142899	155.229999613263	336
3	147141	160.229999613263	336
3	151383	165.229999613263	336
3	155625	170.229999613263	336
3	159867	175.229999613263	336
3	164109	180.229999613263	336
3	168351	185.229999613263	336
3	172593	190.229999613263	336
3	176835	195.229999613263	336
3	181077	200.229999613263	336
3	185319	205.229999613263	336
3	189561	210.229999613263	336
3	193803	215.229999613263	336
3	198045	220.229999613263	336
3	201562	250.230000458063	112
3	203018	250.230068264463	112
3	204471	250.230131047663	336
3	208708	250.230310413263	336
3	212945	250.230489778863	336
3	217182	250.230669144463	336
3	221437	255.230068264463	336
3	225679	260.230068264463	336
3	229921	265.230068264463	336
3	234163	270.230068264463	336
3	238405	275.230068264463	336
4	0	0	360
4	2069	0.229868178863	360
4	3522	0.229930962063	360
4	4975	0.229993745263	360
4	9212	0.230173110863	360
4	13449	0.230352476463	720
4	17686	0.230531842063	720
4	21941	5.229930962063	720
4	26183	10.229930962063	720
4	30425	15.229930962063	720
4	34667	20.229930962063	720
4	38909	25.229930962063	720
4	43151	30.229930962063	720
4	47393	35.229930962063	720
4	51635	40.229930962063	720
4	55877	45.229930962063	720
4	60119	50.229930962063	720
4	64361	55.229930962063	720
4	68603	60.229930962063	720
4	72845	65.229930962063	720
4	77087	70.229930962063	720
4	81329	75.229930962063	720
4	85571	80.229930962063	720
4	89813	85.229930962063	720
4	94055	90.229930962063	720
4	98297	95.229930962063	720
4	101814	125.229931806863	360
4	103270	125.229999613263	360
4	104723	125.230062396463	360
4	108960	125.230241762063	480
4	113197	125.230421127663	480
4	117434	125.230600493263	480
4	121689	130.229999613263	480
4	125931	135.229999613263	480
4	130173	140.229999613263	480
4	134415	145.229999613263	480
4	138657	150.229999613263	480
4	142899	155.229999613263	480
4	147141	160.229999613263	480
4	151383	165.229999613263	480
4	155625	170.229999613263	480
4	159867	175.229999613263	480
4	164109	180.229999613263	480
4	168351	185.229999613263	480
4	172593	190.229999613263	480
4	176835	195.229999613263	480
4	181077	200.229999613263	480
4	185319	205.229999613263	480
4	189561	210.229999613263	480
4	193803	215.229999613263	480
4	198045	220.229999613263	480
4	201562	250.230000458063	360
4	203018	250.230068264463	360
4	204471	250.230131047663	360
4	208708	250.230310413263	480
4	212945	250.230489778863	480
4	217182	250.230669144463	480
4	221437	255.230068264463	480
4	225679	260.230068264463	480
4	229921	265.230068264463	480
4	234163	270.230068264463	480
4	238405	275.230068264463	480
5	2	0.229773239663	0
5	3520	0.229930962063	1
5	101782	124.229930962063	0
5	101783	125.229930962063	0
5	103268	125.229999613263	1
5	201530	249.229999613263	0
5	201531	250.229999613263	0
5	203016	250.230068264463	1
6	5	0.229773239663	51
6	34	0.229774084463	47
6	38	0.229774122063	247
6	97	0.229778950063	47
6	136	0.229783260463	47
6	159	0.229784459663	47
6	202	0.229787570863	47
6	233	0.229788770063	47
6	264	0.229789969263	47
6	295	0.229791168463	47
6	326	0.229792367663	47
6	357	0.229793566863	47
6	388	0.229794766063	47
6	419	0.229795965263	47
6	450	0.229797164463	47
6	481	0.229798363663	47
6	512	0.229799562863	47
6	543	0.229800762063	47
6	574	0.229801961263	47
6	605	0.229803160463	47
6	636	0.229804359663	47
6	667	0.229805558863	47
6	698	0.229806758063	47
6	729	0.229807957263	47
6	760	0.229809156463	47
6	791	0.229810355663	47
6	822	0.229811554863	47
6	853	0.229812754063	47
6	884	0.229813953263	47
6	915	0.229815152463	47
6	946	0.229816351663	47
6	977	0.229817550863	47
6	1008	0.229818750063	47
6	1039	0.229819949263	47
6	1070	0.229821148463	47
6	1101	0.229822347663	47
6	1132	0.229823546863	47
6	1161	0.229824746063	47
6	1188	0.229825945263	47
6	1215	0.229827144463	47
6	1242	0.229828343663	47
6	1269	0.229829542863	47
6	1296	0.229830742063	47
6	1323	0.229831941263	47
6	1350	0.229833140463	47
6	1377	0.229834339663	47
6	1404	0.229835538863	47
6	1431	0.229836738063	47
6	1458	0.229837937263	47
6	1485	0.229839136463	47
6	1512	0.229840335663	47
6	1539	0.229841534863	47
6	1566	0.229842734063	47
6	1593	0.229843933263	47
6	1620	0.229845132463	47
6	1647	0.229846331663	47
6	1674	0.229847530863	47
6	1701	0.229848730063	47
6	1728	0.229849929263	47
6	1755	0.229851128463	47
6	1782	0.229852327663	47
6	1809	0.229853526863	47
6	1836	0.229854726063	47
6	1863	0.229855925263	47
6	1890	0.229857124463	47
6	1917	0.229858323663	47
6	1944	0.229859522863	47
6	1971	0.229860722063	47
6	1998	0.229861921263	47
6	2021	0.229863120463	47
6	2040	0.229864319663	47
6	2070	0.229868178863	47
6	2074	0.229868216463	247
6	2230	0.229873044463	47
6	2259	0.229874243663	47
6	2288	0.229875442863	47
6	2317	0.229876642063	47
6	2344	0.229877841263	47
6	2371	0.229879040463	47
6	2398	0.229880239663	47
6	2425	0.229881438863	47
6	2452	0.229882638063	47
6	2479	0.229883837263	47
6	2506	0.229885036463	47
6	2533	0.229886235663	47
6	2560	0.229887434863	47
6	2587	0.229888634063	47
6	2614	0.229889833263	47
6	2641	0.229891032463	47
6	2668	0.229892231663	47
6	2695	0.229893430863	47
6	2722	0.229894630063	47
6	2749	0.229895829263	47
6	2776	0.229897028463	47
6	2803	0.229898227663	47
6	2830	0.229899426863	47
6	2857	0.229900626063	47
6	2884	0.229901825263	47
6	2911	0.229903024463	47
6	2938	0.229904223663	47
6	2965	0.229905422863	47
6	2992	0.229906622063	47
6	3019	0.229907821263	47
6	3046	0.229909020463	47
6	3073	0.229910219663	47
6	3100	0.229911418863	47
6	3127	0.229912618063	47
6	3154	0.229913817263	47
6	3181	0.229915016463	47
6	3208	0.229916215663	47
6	3235	0.229917414863	47
6	3262	0.229918614063	47
6	3289	0.229919813263	47
6	3316	0.229921012463	47
6	3343	0.229922211663	47
6	3370	0.229923410863	47
6	3397	0.229924610063	47
6	3424	0.229925809263	47
6	3451	0.229927008463	47
6	3474	0.229928207663	47
6	3493	0.229929406863	47
6	3523	0.229930962063	47
6	3527	0.229930999663	247
6	3683	0.229935827663	47
6	3712	0.229937026863	47
6	3741	0.229938226063	47
6	3770	0.229939425263	47
6	3797	0.229940624463	47
6	3824	0.229941823663	47
6	3851	0.229943022863	47
6	3878	0.229944222063	47
6	3905	0.229945421263	47
6	3932	0.229946620463	47
6	3959	0.229947819663	47
6	3986	0.229949018863	47
6	4013	0.229950218063	47
6	4040	0.229951417263	47
6	4067	0.229952616463	47
6	4094	0.229953815663	47
6	4121	0.229955014863	47
6	4148	0.229956214063	47
6	4175	0.229957413263	47
6	4202	0.229958612463	47
6	4229	0.229959811663	47
6	4256	0.229961010863	47
6	4283	0.229962210063	47
6	4310	0.229963409263	47
6	4337	0.229964608463	47
6	4364	0.229965807663	47
6	4391	0.229967006863	47
6	4418	0.229968206063	47
6	4445	0.229969405263	47
6	4472	0.229970604463	47
6	4499	0.229971803663	47
6	4526	0.229973002863	47
6	4553	0.229974202063	47
6	4580	0.229975401263	47
6	4607	0.229976600463	47
6	4634	0.229977799663	47
6	4661	0.229978998863	47
6	4688	0.229980198063	47
6	4715	0.229981397263	47
6	4742	0.229982596463	47
6	4769	0.229983795663	47
6	4796	0.229984994863	47
6	4823	0.229986194063	47
6	4850	0.229987393263	47
6	4877	0.229988592463	47
6	4904	0.229989791663	47
6	4927	0.229990990863	47
6	4946	0.229992190063	47
6	4976	0.229993745263	47
6	4980	0.229993782863	247
6	5136	0.229998610863	47
6	5165	0.229999810063	47
6	5194	0.230001009263	47
6	5223	0.230002208463	47
6	5252	0.230003407663	47
6	5281	0.230004606863	47
6	5310	0.230005806063	47
6	5339	0.230007005263	47
6	5368	0.230008204463	47
6	5397	0.230009403663	47
6	5426	0.230010602863	47
6	5455	0.230011802063	47
6	5484	0.230013001263	47
6	5513	0.230014200463	47
6	5542	0.230015399663	47
6	5571	0.230016598863	47
6	5600	0.230017798063	47
6	5629	0.230018997263	47
6	5658	0.230020196463	47
6	5687	0.230021395663	47
6	5716	0.230022594863	47
6	5745	0.230023794063	47
6	5774	0.230024993263	47
6	5803	0.230026192463	47
6	5832	0.230027391663	47
6	5861	0.230028590863	47
6	5890	0.230029790063	47
6	5919	0.230030989263	47
6	5948	0.230032188463	47
6	5977	0.230033387663	47
6	6006	0.230034586863	47
6	6035	0.230035786063	47
6	6064	0.230036985263	47
6	6093	0.230038184463	47
6	6122	0.230039383663	47
6	6151	0.230040582863	47
6	6180	0.230041782063	47
6	6209	0.230042981263	47
6	6238	0.230044180463	47
6	6267	0.230045379663	47
6	6296	0.230046578863	47
6	6325	0.230047778063	47
6	6354	0.230048977263	47
6	6383	0.230050176463	47
6	6412	0.230051375663	47
6	6441	0.230052574863	47
6	6470	0.230053774063	47
6	6499	0.230054973263	47
6	6528	0.230056172463	47
6	6557	0.230057371663	47
6	6586	0.230058570863	47
6	6615	0.230059770063	47
6	6644	0.230060969263	47
6	6673	0.230062168463	47
6	6702	0.230063367663	47
6	6731	0.230064566863	47
6	6760	0.230065766063	47
6	6789	0.230066965263	47
6	6818	0.230068164463	47
6	6847	0.230069363663	47
6	6876	0.230070562863	47
6	6905	0.230071762063	47
6	6934	0.230072961263	47
6	6963	0.230074160463	47
6	6992	0.230075359663	47
6	7021	0.230076558863	47
6	7050	0.230077758063	47
6	7079	0.230078957263	47
6	7108	0.230080156463	47
6	7137	0.230081355663	47
6	7166	0.230082554863	47
6	7195	0.230083754063	47
6	7224	0.230084953263	47
6	7253	0.230086152463	47
6	7282	0.230087351663	47
6	7311	0.230088550863	47
6	7340	0.230089750063	47
6	7369	0.230090949263	47
6	7398	0.230092148463	47
6	7427	0.230093347663	47
6	7456	0.230094546863	47
6	7485	0.230095746063	47
6	7514	0.230096945263	47
6	7543	0.230098144463	47
6	7572	0.230099343663	47
6	7601	0.230100542863	47
6	7630	0.230101742063	47
6	7659	0.230102941263	47
6	7688	0.230104140463	47
6	7717	0.230105339663	47
6	7746	0.230106538863	47
6	7775	0.230107738063	47
6	7804	0.230108937263	47
6	7833	0.230110136463	47
6	7862	0.230111335663	47
6	7891	0.230112534863	47
6	7920	0.230113734063	47
6	7949	0.230114933263	47
6	7978	0.230116132463	47
6	8007	0.230117331663	47
6	8034	0.230118530863	47
6	8061	0.230119730063	47
6	8088	0.230120929263	47
6	8115	0.230122128463	47
6	8142	0.230123327663	47
6	8169	0.230124526863	47
6	8196	0.230125726063	47
6	8223	0.230126925263	47
6	8250	0.230128124463	47
6	8277	0.230129323663	47
6	8304	0.230130522863	47
6	8331	0.230131722063	47
6	8358	0.230132921263	47
6	8385	0.230134120463	47
6	8412	0.230135319663	47
6	8439	0.230136518863	47
6	8466	0.230137718063	47
6	8493	0.230138917263	47
6	8520	0.230140116463	47
6	8547	0.230141315663	47
6	8574	0.230142514863	47
6	8601	0.230143714063	47
6	8628	0.230144913263	47
6	8655	0.230146112463	47
6	8682	0.230147311663	47
6	8709	0.230148510863	47
6	8736	0.230149710063	47
6	8763	0.230150909263	47
6	8790	0.230152108463	47
6	8817	0.230153307663	47
6	8844	0.230154506863	47
6	8871	0.230155706063	47
6	8898	0.230156905263	47
6	8925	0.230158104463	47
6	8952	0.230159303663	47
6	8979	0.230160502863	47
6	9006	0.230161702063	47
6	9033	0.230162901263	47
6	9060	0.230164100463	47
6	9087	0.230165299663	47
6	9114	0.230166498863	47
6	9141	0.230167698063	47
6	9164	0.230168897263	47
6	9183	0.230170096463	47
6	9213	0.230173110863	47
6	9217	0.230173148463	247
6	9373	0.230177976463	47
6	9402	0.230179175663	47
6	9431	0.230180374863	47
6	9460	0.230181574063	47
6	9489	0.230182773263	47
6	9518	0.230183972463	47
6	9547	0.230185171663	47
6	9576	0.230186370863	47
6	9605	0.230187570063	47
6	9634	0.230188769263	47
6	9663	0.230189968463	47
6	9692	0.230191167663	47
6	9721	0.230192366863	47
6	9750	0.230193566063	47
6	9779	0.230194765263	47
6	9808	0.230195964463	47
6	9837	0.230197163663	47
6	9866	0.230198362863	47
6	9895	0.230199562063	47
6	9924	0.230200761263	47
6	9953	0.230201960463	47
6	9982	0.230203159663	47
6	10011	0.230204358863	47
6	10040	0.230205558063	47
6	10069	0.230206757263	47
6	10098	0.230207956463	47
6	10127	0.230209155663	47
6	10156	0.230210354863	47
6	10185	0.230211554063	47
6	10214	0.230212753263	47
6	10243	0.230213952463	47
6	10272	0.230215151663	47
6	10301	0.230216350863	47
6	10330	0.230217550063	47
6	10359	0.230218749263	47
6	10388	0.230219948463	47
6	10417	0.230221147663	47
6	10446	0.230222346863	47
6	10475	0.230223546063	47
6	10504	0.230224745263	47
6	10533	0.230225944463	47
6	10562	0.230227143663	47
6	10591	0.230228342863	47
6	10620	0.230229542063	47
6	10649	0.230230741263	47
6	10678	0.230231940463	47
6	10707	0.230233139663	47
6	10736	0.230234338863	47
6	10765	0.230235538063	47
6	10794	0.230236737263	47
6	10823	0.230237936463	47
6	10852	0.230239135663	47
6	10881	0.230240334863	47
6	10910	0.230241534063	47
6	10939	0.230242733263	47
6	10968	0.230243932463	47
6	10997	0.230245131663	47
6	11026	0.230246330863	47
6	11055	0.230247530063	47
6	11084	0.230248729263	47
6	11113	0.230249928463	47
6	11142	0.230251127663	47
6	11171	0.230252326863	47
6	11200	0.230253526063	47
6	11229	0.230254725263	47
6	11258	0.230255924463	47
6	11287	0.230257123663	47
6	11316	0.230258322863	47
6	11345	0.230259522063	47
6	11374	0.230260721263	47
6	11403	0.230261920463	47
6	11432	0.230263119663	47
6	11461	0.230264318863	47
6	11490	0.230265518063	47
6	11519	0.230266717263	47
6	11548	0.230267916463	47
6	11577	0.230269115663	47
6	11606	0.230270314863	47
6	11635	0.230271514063	47
6	11664	0.230272713263	47
6	11693	0.230273912463	47
6	11722	0.230275111663	47
6	11751	0.230276310863	47
6	11780	0.230277510063	47
6	11809	0.230278709263	47
6	11838	0.230279908463	47
6	11867	0.230281107663	47
6	11896	0.230282306863	47
6	11925	0.230283506063	47
6	11954	0.230284705263	47
6	11983	0.230285904463	47
6	12012	0.230287103663	47
6	12041	0.230288302863	47
6	12070	0.230289502063	47
6	12099	0.230290701263	47
6	12128	0.230291900463	47
6	12157	0.230293099663	47
6	12186	0.230294298863	47
6	12215	0.230295498063	47
6	12244	0.230296697263	47
6	12271	0.230297896463	47
6	12298	0.230299095663	47
6	12325	0.230300294863	47
6	12352	0.230301494063	47
6	12379	0.230302693263	47
6	12406	0.230303892463	47
6	12433	0.230305091663	47
6	12460	0.230306290863	47
6	12487	0.230307490063	47
6	12514	0.230308689263	47
6	12541	0.230309888463	47
6	12568	0.230311087663	47
6	12595	0.230312286863	47
6	12622	0.230313486063	47
6	12649	0.230314685263	47
6	12676	0.230315884463	47
6	12703	0.230317083663	47
6	12730	0.230318282863	47
6	12757	0.230319482063	47
6	12784	0.230320681263	47
6	12811	0.230321880463	47
6	12838	0.230323079663	47
6	12865	0.230324278863	47
6	12892	0.230325478063	47
6	12919	0.230326677263	47
6	12946	0.230327876463	47
6	12973	0.230329075663	47
6	13000	0.230330274863	47
6	13027	0.230331474063	47
6	13054	0.230332673263	47
6	13081	0.230333872463	47
6	13108	0.230335071663	47
6	13135	0.230336270863	47
6	13162	0.230337470063	47
6	13189	0.230338669263	47
6	13216	0.230339868463	47
6	13243	0.230341067663	47
6	13270	0.230342266863	47
6	13297	0.230343466063	47
6	13324	0.230344665263	47
6	13351	0.230345864463	47
6	13378	0.230347063663	47
6	13401	0.230348262863	47
6	13420	0.230349462063	47
6	13450	0.230352476463	47
6	13454	0.230352514063	247
6	13610	0.230357342063	47
6	13639	0.230358541263	47
6	13668	0.230359740463	47
6	13697	0.230360939663	47
6	13726	0.230362138863	47
6	13755	0.230363338063	47
6	13784	0.230364537263	47
6	13813	0.230365736463	47
6	13842	0.230366935663	47
6	13871	0.230368134863	47
6	13900	0.230369334063	47
6	13929	0.230370533263	47
6	13958	0.230371732463	47
6	13987	0.230372931663	47
6	14016	0.230374130863	47
6	14045	0.230375330063	47
6	14074	0.230376529263	47
6	14103	0.230377728463	47
6	14132	0.230378927663	47
6	14161	0.230380126863	47
6	14190	0.230381326063	47
6	14219	0.230382525263	47
6	14248	0.230383724463	47
6	14277	0.230384923663	47
6	14306	0.230386122863	47
6	14335	0.230387322063	47
6	14364	0.230388521263	47
6	14393	0.230389720463	47
6	14422	0.230390919663	47
6	14451	0.230392118863	47
6	14480	0.230393318063	47
6	14509	0.230394517263	47
6	14538	0.230395716463	47
6	14567	0.230396915663	47
6	14596	0.230398114863	47
6	14625	0.230399314063	47
6	14654	0.230400513263	47
6	14683	0.230401712463	47
6	14712	0.230402911663	47
6	14741	0.230404110863	47
6	14770	0.230405310063	47
6	14799	0.230406509263	47
6	14828	0.230407708463	47
6	14857	0.230408907663	47
6	14886	0.230410106863	47
6	14915	0.230411306063	47
6	14944	0.230412505263	47
6	14973	0.230413704463	47
6	15002	0.230414903663	47
6	15031	0.230416102863	47
6	15060	0.230417302063	47
6	15089	0.230418501263	47
6	15118	0.230419700463	47
6	15147	0.230420899663	47
6	15176	0.230422098863	47
6	15205	0.230423298063	47
6	15234	0.230424497263	47
6	15263	0.230425696463	47
6	15292	0.230426895663	47
6	15321	0.230428094863	47
6	15350	0.230429294063	47
6	15379	0.230430493263	47
6	15408	0.230431692463	47
6	15437	0.230432891663	47
6	15466	0.230434090863	47
6	15495	0.230435290063	47
6	15524	0.230436489263	47
6	15553	0.230437688463	47
6	15582	0.230438887663	47
6	15611	0.230440086863	47
6	15640	0.230441286063	47
6	15669	0.230442485263	47
6	15698	0.230443684463	47
6	15727	0.230444883663	47
6	15756	0.230446082863	47
6	15785	0.230447282063	47
6	15814	0.230448481263	47
6	15843	0.230449680463	47
6	15872	0.230450879663	47
6	15901	0.230452078863	47
6	15930	0.230453278063	47
6	15959	0.230454477263	47
6	15988	0.230455676463	47
6	16017	0.230456875663	47
6	16046	0.230458074863	47
6	16075	0.230459274063	47
6	16104	0.230460473263	47
6	16133	0.230461672463	47
6	16162	0.230462871663	47
6	16191	0.230464070863	47
6	16220	0.230465270063	47
6	16249	0.230466469263	47
6	16278	0.230467668463	47
6	16307	0.230468867663	47
6	16336	0.230470066863	47
6	16365	0.230471266063	47
6	16394	0.230472465263	47
6	16423	0.230473664463	47
6	16452	0.230474863663	47
6	16481	0.230476062863	47
6	16508	0.230477262063	47
6	16535	0.230478461263	47
6	16562	0.230479660463	47
6	16589	0.230480859663	47
6	16616	0.230482058863	47
6	16643	0.230483258063	47
6	16670	0.230484457263	47
6	16697	0.230485656463	47
6	16724	0.230486855663	47
6	16751	0.230488054863	47
6	16778	0.230489254063	47
6	16805	0.230490453263	47
6	16832	0.230491652463	47
6	16859	0.230492851663	47
6	16886	0.230494050863	47
6	16913	0.230495250063	47
6	16940	0.230496449263	47
6	16967	0.230497648463	47
6	16994	0.230498847663	47
6	17021	0.230500046863	47
6	17048	0.230501246063	47
6	17075	0.230502445263	47
6	17102	0.230503644463	47
6	17129	0.230504843663	47
6	17156	0.230506042863	47
6	17183	0.230507242063	47
6	17210	0.230508441263	47
6	17237	0.230509640463	47
6	17264	0.230510839663	47
6	17291	0.230512038863	47
6	17318	0.230513238063	47
6	17345	0.230514437263	47
6	17372	0.230515636463	47
6	17399	0.230516835663	47
6	17426	0.230518034863	47
6	17453	0.230519234063	47
6	17480	0.230520433263	47
6	17507	0.230521632463	47
6	17534	0.230522831663	47
6	17561	0.230524030863	47
6	17588	0.230525230063	47
6	17615	0.230526429263	47
6	17638	0.230527628463	47
6	17657	0.230528827663	47
6	17687	0.230531842063	47
6	17691	0.230531879663	247
6	17847	0.230536707663	47
6	17876	0.230537906863	47
6	17905	0.230539106063	47
6	17934	0.230540305263	47
6	17963	0.230541504463	47
6	17992	0.230542703663	47
6	18021	0.230543902863	47
6	18050	0.230545102063	47
6	18079	0.230546301263	47
6	18108	0.230547500463	47
6	18137	0.230548699663	47
6	18166	0.230549898863	47
6	18195	0.230551098063	47
6	18224	0.230552297263	47
6	18253	0.230553496463	47
6	18282	0.230554695663	47
6	18311	0.230555894863	47
6	18340	0.230557094063	47
6	18369	0.230558293263	47
6	18398	0.230559492463	47
6	18427	0.230560691663	47
6	18456	0.230561890863	47
6	18485	0.230563090063	47
6	18514	0.230564289263	47
6	18543	0.230565488463	47
6	18572	0.230566687663	47
6	18601	0.230567886863	47
6	18630	0.230569086063	47
6	18659	0.230570285263	47
6	18688	0.230571484463	47
6	18717	0.230572683663	47
6	18746	0.230573882863	47
6	18775	0.230575082063	47
6	18804	0.230576281263	47
6	18833	0.230577480463	47
6	18862	0.230578679663	47
6	18891	0.230579878863	47
6	18920	0.230581078063	47
6	18949	0.230582277263	47
6	18978	0.230583476463	47
6	19007	0.230584675663	47
6	19036	0.230585874863	47
6	19065	0.230587074063	47
6	19094	0.230588273263	47
6	19123	0.230589472463	47
6	19152	0.230590671663	47
6	19181	0.230591870863	47
6	19210	0.230593070063	47
6	19239	0.230594269263	47
6	19268	0.230595468463	47
6	19297	0.230596667663	47
6	19326	0.230597866863	47
6	19355	0.230599066063	47
6	19384	0.230600265263	47
6	19413	0.230601464463	47
6	19442	0.230602663663	47
6	19471	0.230603862863	47
6	19500	0.230605062063	47
6	19529	0.230606261263	47
6	19558	0.230607460463	47
6	19587	0.230608659663	47
6	19616	0.230609858863	47
6	19645	0.230611058063	47
6	19674	0.230612257263	47
6	19703	0.230613456463	47
6	19732	0.230614655663	47
6	19761	0.230615854863	47
6	19790	0.230617054063	47
6	19819	0.230618253263	47
6	19848	0.230619452463	47
6	19877	0.230620651663	47
6	19906	0.230621850863	47
6	19935	0.230623050063	47
6	19964	0.230624249263	47
6	19993	0.230625448463	47
6	20022	0.230626647663	47
6	20051	0.230627846863	47
6	20080	0.230629046063	47
6	20109	0.230630245263	47
6	20138	0.230631444463	47
6	20167	0.230632643663	47
6	20196	0.230633842863	47
6	20225	0.230635042063	47
6	20254	0.230636241263	47
6	20283	0.230637440463	47
6	20312	0.230638639663	47
6	20341	0.230639838863	47
6	20370	0.230641038063	47
6	20399	0.230642237263	47
6	20428	0.230643436463	47
6	20457	0.230644635663	47
6	20486	0.230645834863	47
6	20515	0.230647034063	47
6	20544	0.230648233263	47
6	20573	0.230649432463	47
6	20602	0.230650631663	47
6	20631	0.230651830863	47
6	20660	0.230653030063	47
6	20689	0.230654229263	47
6	20718	0.230655428463	47
6	20745	0.230656627663	47
6	20772	0.230657826863	47
6	20799	0.230659026063	47
6	20826	0.230660225263	47
6	20853	0.230661424463	47
6	20880	0.230662623663	47
6	20907	0.230663822863	47
6	20934	0.230665022063	47
6	20961	0.230666221263	47
6	20988	0.230667420463	47
6	21015	0.230668619663	47
6	21042	0.230669818863	47
6	21069	0.230671018063	47
6	21096	0.230672217263	47
6	21123	0.230673416463	47
6	21150	0.230674615663	47
6	21177	0.230675814863	47
6	21204	0.230677014063	47
6	21231	0.230678213263	47
6	21258	0.230679412463	47
6	21285	0.230680611663	47
6	21312	0.230681810863	47
6	21339	0.230683010063	47
6	21366	0.230684209263	47
6	21393	0.230685408463	47
6	21420	0.230686607663	47
6	21447	0.230687806863	47
6	21474	0.230689006063	47
6	21501	0.230690205263	47
6	21528	0.230691404463	47
6	21555	0.230692603663	47
6	21582	0.230693802863	47
6	21609	0.230695002063	47
6	21636	0.230696201263	47
6	21663	0.230697400463	47
6	21690	0.230698599663	47
6	21717	0.230699798863	47
6	21744	0.230700998063	47
6	21771	0.230702197263	47
6	21798	0.230703396463	47
6	21825	0.230704595663	47
6	21852	0.230705794863	47
6	21875	0.230706994063	47
6	21894	0.230708193263	47
6	21923	0.230711207663	47
6	21944	5.229930962063	247
6	21989	5.229935790063	47
6	22028	5.229940100463	47
6	22051	5.229941299663	47
6	22094	5.229944410863	47
6	22125	5.229945610063	47
6	22156	5.229946809263	47
6	22187	5.229948008463	47
6	22218	5.229949207663	47
6	22249	5.229950406863	47
6	22280	5.229951606063	47
6	22311	5.229952805263	47
6	22342	5.229954004463	47
6	22373	5.229955203663	47
6	22404	5.229956402863	47
6	22435	5.229957602063	47
6	22466	5.229958801263	47
6	22497	5.229960000463	47
6	22528	5.229961199663	47
6	22559	5.229962398863	47
6	22590	5.229963598063	47
6	22621	5.229964797263	47
6	22652	5.229965996463	47
6	22683	5.229967195663	47
6	22714	5.229968394863	47
6	22745	5.229969594063	47
6	22776	5.229970793263	47
6	22807	5.229971992463	47
6	22838	5.229973191663	47
6	22869	5.229974390863	47
6	22900	5.229975590063	47
6	22931	5.229976789263	47
6	22962	5.229977988463	47
6	22993	5.229979187663	47
6	23024	5.229980386863	47
6	23055	5.229981586063	47
6	23086	5.229982785263	47
6	23117	5.229983984463	47
6	23148	5.229985183663	47
6	23179	5.229986382863	47
6	23210	5.229987582063	47
6	23241	5.229988781263	47
6	23272	5.229989980463	47
6	23303	5.229991179663	47
6	23334	5.229992378863	47
6	23365	5.229993578063	47
6	23394	5.229994777263	47
6	23423	5.229995976463	47
6	23452	5.229997175663	47
6	23481	5.229998374863	47
6	23510	5.229999574063	47
6	23539	5.230000773263	47
6	23568	5.230001972463	47
6	23597	5.230003171663	47
6	23626	5.230004370863	47
6	23655	5.230005570063	47
6	23684	5.230006769263	47
6	23713	5.230007968463	47
6	23742	5.230009167663	47
6	23771	5.230010366863	47
6	23800	5.230011566063	47
6	23829	5.230012765263	47
6	23858	5.230013964463	47
6	23887	5.230015163663	47
6	23916	5.230016362863	47
6	23945	5.230017562063	47
6	23974	5.230018761263	47
6	24003	5.230019960463	47
6	24032	5.230021159663	47
6	24061	5.230022358863	47
6	24090	5.230023558063	47
6	24119	5.230024757263	47
6	24148	5.230025956463	47
6	24177	5.230027155663	47
6	24206	5.230028354863	47
6	24235	5.230029554063	47
6	24264	5.230030753263	47
6	24293	5.230031952463	47
6	24322	5.230033151663	47
6	24351	5.230034350863	47
6	24380	5.230035550063	47
6	24409	5.230036749263	47
6	24438	5.230037948463	47
6	24467	5.230039147663	47
6	24496	5.230040346863	47
6	24525	5.230041546063	47
6	24554	5.230042745263	47
6	24583	5.230043944463	47
6	24612	5.230045143663	47
6	24641	5.230046342863	47
6	24670	5.230047542063	47
6	24699	5.230048741263	47
6	24728	5.230049940463	47
6	24757	5.230051139663	47
6	24786	5.230052338863	47
6	24815	5.230053538063	47
6	24844	5.230054737263	47
6	24873	5.230055936463	47
6	24902	5.230057135663	47
6	24931	5.230058334863	47
6	24960	5.230059534063	47
6	24987	5.230060733263	47
6	25014	5.230061932463	47
6	25041	5.230063131663	47
6	25068	5.230064330863	47
6	25095	5.230065530063	47
6	25122	5.230066729263	47
6	25149	5.230067928463	47
6	25176	5.230069127663	47
6	25203	5.230070326863	47
6	25230	5.230071526063	47
6	25257	5.230072725263	47
6	25284	5.230073924463	47
6	25311	5.230075123663	47
6	25338	5.230076322863	47
6	25365	5.230077522063	47
6	25392	5.230078721263	47
6	25419	5.230079920463	47
6	25446	5.230081119663	47
6	25473	5.230082318863	47
6	25500	5.230083518063	47
6	25527	5.230084717263	47
6	25554	5.230085916463	47
6	25581	5.230087115663	47
6	25608	5.230088314863	47
6	25635	5.230089514063	47
6	25662	5.230090713263	47
6	25689	5.230091912463	47
6	25716	5.230093111663	47
6	25743	5.230094310863	47
6	25770	5.230095510063	47
6	25797	5.230096709263	47
6	25824	5.230097908463	47
6	25851	5.230099107663	47
6	25878	5.230100306863	47
6	25905	5.230101506063	47
6	25932	5.230102705263	47
6	25959	5.230103904463	47
6	25986	5.230105103663	47
6	26013	5.230106302863	47
6	26040	5.230107502063	47
6	26067	5.230108701263	47
6	26094	5.230109900463	47
6	26117	5.230111099663	47
6	26136	5.230112298863	47
6	26165	5.230115313263	47
6	26186	10.229930962063	247
6	26231	10.229935790063	47
6	26270	10.229940100463	47
6	26293	10.229941299663	47
6	26336	10.229944410863	47
6	26367	10.229945610063	47
6	26398	10.229946809263	47
6	26429	10.229948008463	47
6	26460	10.229949207663	47
6	26491	10.229950406863	47
6	26522	10.229951606063	47
6	26553	10.229952805263	47
6	26584	10.229954004463	47
6	26615	10.229955203663	47
6	26646	10.229956402863	47
6	26677	10.229957602063	47
6	26708	10.229958801263	47
6	26739	10.229960000463	47
6	26770	10.229961199663	47
6	26801	10.229962398863	47
6	26832	10.229963598063	47
6	26863	10.229964797263	47
6	26894	10.229965996463	47
6	26925	10.229967195663	47
6	26956	10.229968394863	47
6	26987	10.229969594063	47
6	27018	10.229970793263	47
6	27049	10.229971992463	47
6	27080	10.229973191663	47
6	27111	10.229974390863	47
6	27142	10.229975590063	47
6	27173	10.229976789263	47
6	27204	10.229977988463	47
6	27235	10.229979187663	47
6	27266	10.229980386863	47
6	27297	10.229981586063	47
6	27328	10.229982785263	47
6	27359	10.229983984463	47
6	27390	10.229985183663	47
6	27421	10.229986382863	47
6	27452	10.229987582063	47
6	27483	10.229988781263	47
6	27514	10.229989980463	47
6	27545	10.229991179663	47
6	27576	10.229992378863	47
6	27607	10.229993578063	47
6	27636	10.229994777263	47
6	27665	10.229995976463	47
6	27694	10.229997175663	47
6	27723	10.229998374863	47
6	27752	10.229999574063	47
6	27781	10.230000773263	47
6	27810	10.230001972463	47
6	27839	10.230003171663	47
6	27868	10.230004370863	47
6	27897	10.230005570063	47
6	27926	10.230006769263	47
6	27955	10.230007968463	47
6	27984	10.230009167663	47
6	28013	10.230010366863	47
6	28042	10.230011566063	47
6	28071	10.230012765263	47
6	28100	10.230013964463	47
6	28129	10.230015163663	47
6	28158	10.230016362863	47
6	28187	10.230017562063	47
6	28216	10.230018761263	47
6	28245	10.230019960463	47
6	28274	10.230021159663	47
6	28303	10.230022358863	47
6	28332	10.230023558063	47
6	28361	10.230024757263	47
6	28390	10.230025956463	47
6	28419	10.230027155663	47
6	28448	10.230028354863	47
6	28477	10.230029554063	47
6	28506	10.230030753263	47
6	28535	10.230031952463	47
6	28564	10.230033151663	47
6	28593	10.230034350863	47
6	28622	10.230035550063	47
6	28651	10.230036749263	47
6	28680	10.230037948463	47
6	28709	10.230039147663	47
6	28738	10.230040346863	47
6	28767	10.230041546063	47
6	28796	10.230042745263	47
6	28825	10.230043944463	47
6	28854	10.230045143663	47
6	28883	10.230046342863	47
6	28912	10.230047542063	47
6	28941	10.230048741263	47
6	28970	10.230049940463	47
6	28999	10.230051139663	47
6	29028	10.230052338863	47
6	29057	10.230053538063	47
6	29086	10.230054737263	47
6	29115	10.230055936463	47
6	29144	10.230057135663	47
6	29173	10.230058334863	47
6	29202	10.230059534063	47
6	29229	10.230060733263	47
6	29256	10.230061932463	47
6	29283	10.230063131663	47
6	29310	10.230064330863	47
6	29337	10.230065530063	47
6	29364	10.230066729263	47
6	29391	10.230067928463	47
6	29418	10.230069127663	47
6	29445	10.230070326863	47
6	29472	10.230071526063	47
6	29499	10.230072725263	47
6	29526	10.230073924463	47
6	29553	10.230075123663	47
6	29580	10.230076322863	47
6	29607	10.230077522063	47
6	29634	10.230078721263	47
6	29661	10.230079920463	47
6	29688	10.230081119663	47
6	29715	10.230082318863	47
6	29742	10.230083518063	47
6	29769	10.230084717263	47
6	29796	10.230085916463	47
6	29823	10.230087115663	47
6	29850	10.230088314863	47
6	29877	10.230089514063	47
6	29904	10.230090713263	47
6	29931	10.230091912463	47
6	29958	10.230093111663	47
6	29985	10.230094310863	47
6	30012	10.230095510063	47
6	30039	10.230096709263	47
6	30066	10.230097908463	47
6	30093	10.230099107663	47
6	30120	10.230100306863	47
6	30147	10.230101506063	47
6	30174	10.230102705263	47
6	30201	10.230103904463	47
6	30228	10.230105103663	47
6	30255	10.230106302863	47
6	30282	10.230107502063	47
6	30309	10.230108701263	47
6	30336	10.230109900463	47
6	30359	10.230111099663	47
6	30378	10.230112298863	47
6	30407	10.230115313263	47
6	30428	15.229930962063	247
6	30473	15.229935790063	47
6	30512	15.229940100463	47
6	30535	15.229941299663	47
6	30578	15.229944410863	47
6	30609	15.229945610063	47
6	30640	15.229946809263	47
6	30671	15.229948008463	47
6	30702	15.229949207663	47
6	30733	15.229950406863	47
6	30764	15.229951606063	47
6	30795	15.229952805263	47
6	30826	15.229954004463	47
6	30857	15.229955203663	47
6	30888	15.229956402863	47
6	30919	15.229957602063	47
6	30950	15.229958801263	47
6	30981	15.229960000463	47
6	31012	15.229961199663	47
6	31043	15.229962398863	47
6	31074	15.229963598063	47
6	31105	15.229964797263	47
6	31136	15.229965996463	47
6	31167	15.229967195663	47
6	31198	15.229968394863	47
6	31229	15.229969594063	47
6	31260	15.229970793263	47
6	31291	15.229971992463	47
6	31322	15.229973191663	47
6	31353	15.229974390863	47
6	31384	15.229975590063	47
6	31415	15.229976789263	47
6	31446	15.229977988463	47
6	31477	15.229979187663	47
6	31508	15.229980386863	47
6	31539	15.229981586063	47
6	31570	15.229982785263	47
6	31601	15.229983984463	47
6	31632	15.229985183663	47
6	31663	15.229986382863	47
6	31694	15.229987582063	47
6	31725	15.229988781263	47
6	31756	15.229989980463	47
6	31787	15.229991179663	47
6	31818	15.229992378863	47
6	31849	15.229993578063	47
6	31878	15.229994777263	47
6	31907	15.229995976463	47
6	31936	15.229997175663	47
6	31965	15.229998374863	47
6	31994	15.229999574063	47
6	32023	15.230000773263	47
6	32052	15.230001972463	47
6	32081	15.230003171663	47
6	32110	15.230004370863	47
6	32139	15.230005570063	47
6	32168	15.230006769263	47
6	32197	15.230007968463	47
6	32226	15.230009167663	47
6	32255	15.230010366863	47
6	32284	15.230011566063	47
6	32313	15.230012765263	47
6	32342	15.230013964463	47
6	32371	15.230015163663	47
6	32400	15.230016362863	47
6	32429	15.230017562063	47
6	32458	15.230018761263	47
6	32487	15.230019960463	47
6	32516	15.230021159663	47
6	32545	15.230022358863	47
6	32574	15.230023558063	47
6	32603	15.230024757263	47
6	32632	15.230025956463	47
6	32661	15.230027155663	47
6	32690	15.230028354863	47
6	32719	15.230029554063	47
6	32748	15.230030753263	47
6	32777	15.230031952463	47
6	32806	15.230033151663	47
6	32835	15.230034350863	47
6	32864	15.230035550063	47
6	32893	15.230036749263	47
6	32922	15.230037948463	47
6	32951	15.230039147663	47
6	32980	15.230040346863	47
6	33009	15.230041546063	47
6	33038	15.230042745263	47
6	33067	15.230043944463	47
6	33096	15.230045143663	47
6	33125	15.230046342863	47
6	33154	15.230047542063	47
6	33183	15.230048741263	47
6	33212	15.230049940463	47
6	33241	15.230051139663	47
6	33270	15.230052338863	47
6	33299	15.230053538063	47
6	33328	15.230054737263	47
6	33357	15.230055936463	47
6	33386	15.230057135663	47
6	33415	15.230058334863	47
6	33444	15.230059534063	47
6	33471	15.230060733263	47
6	33498	15.230061932463	47
6	33525	15.230063131663	47
6	33552	15.230064330863	47
6	33579	15.230065530063	47
6	33606	15.230066729263	47
6	33633	15.230067928463	47
6	33660	15.230069127663	47
6	33687	15.230070326863	47
6	33714	15.230071526063	47
6	33741	15.230072725263	47
6	33768	15.230073924463	47
6	33795	15.230075123663	47
6	33822	15.230076322863	47
6	33849	15.230077522063	47
6	33876	15.230078721263	47
6	33903	15.230079920463	47
6	33930	15.230081119663	47
6	33957	15.230082318863	47
6	33984	15.230083518063	47
6	34011	15.230084717263	47
6	34038	15.230085916463	47
6	34065	15.230087115663	47
6	34092	15.230088314863	47
6	34119	15.230089514063	47
6	34146	15.230090713263	47
6	34173	15.230091912463	47
6	34200	15.230093111663	47
6	34227	15.230094310863	47
6	34254	15.230095510063	47
6	34281	15.230096709263	47
6	34308	15.230097908463	47
6	34335	15.230099107663	47
6	34362	15.230100306863	47
6	34389	15.230101506063	47
6	34416	15.230102705263	47
6	34443	15.230103904463	47
6	34470	15.230105103663	47
6	34497	15.230106302863	47
6	34524	15.230107502063	47
6	34551	15.230108701263	47
6	34578	15.230109900463	47
6	34601	15.230111099663	47
6	34620	15.230112298863	47
6	34649	15.230115313263	47
6	34670	20.229930962063	247
6	34715	20.229935790063	47
6	34754	20.229940100463	47
6	34777	20.229941299663	47
6	34820	20.229944410863	47
6	34851	20.229945610063	47
6	34882	20.229946809263	47
6	34913	20.229948008463	47
6	34944	20.229949207663	47
6	34975	20.229950406863	47
6	35006	20.229951606063	47
6	35037	20.229952805263	47
6	35068	20.229954004463	47
6	35099	20.229955203663	47
6	35130	20.229956402863	47
6	35161	20.229957602063	47
6	35192	20.229958801263	47
6	35223	20.229960000463	47
6	35254	20.229961199663	47
6	35285	20.229962398863	47
6	35316	20.229963598063	47
6	35347	20.229964797263	47
6	35378	20.229965996463	47
6	35409	20.229967195663	47
6	35440	20.229968394863	47
6	35471	20.229969594063	47
6	35502	20.229970793263	47
6	35533	20.229971992463	47
6	35564	20.229973191663	47
6	35595	20.229974390863	47
6	35626	20.229975590063	47
6	35657	20.229976789263	47
6	35688	20.229977988463	47
6	35719	20.229979187663	47
6	35750	20.229980386863	47
6	35781	20.229981586063	47
6	35812	20.229982785263	47
6	35843	20.229983984463	47
6	35874	20.229985183663	47
6	35905	20.229986382863	47
6	35936	20.229987582063	47
6	35967	20.229988781263	47
6	35998	20.229989980463	47
6	36029	20.229991179663	47
6	36060	20.229992378863	47
6	36091	20.229993578063	47
6	36120	20.229994777263	47
6	36149	20.229995976463	47
6	36178	20.229997175663	47
6	36207	20.229998374863	47
6	36236	20.229999574063	47
6	36265	20.230000773263	47
6	36294	20.230001972463	47
6	36323	20.230003171663	47
6	36352	20.230004370863	47
6	36381	20.230005570063	47
6	36410	20.230006769263	47
6	36439	20.230007968463	47
6	36468	20.230009167663	47
6	36497	20.230010366863	47
6	36526	20.230011566063	47
6	36555	20.230012765263	47
6	36584	20.230013964463	47
6	36613	20.230015163663	47
6	36642	20.230016362863	47
6	36671	20.230017562063	47
6	36700	20.230018761263	47
6	36729	20.230019960463	47
6	36758	20.230021159663	47
6	36787	20.230022358863	47
6	36816	20.230023558063	47
6	36845	20.230024757263	47
6	36874	20.230025956463	47
6	36903	20.230027155663	47
6	36932	20.230028354863	47
6	36961	20.230029554063	47
6	36990	20.230030753263	47
6	37019	20.230031952463	47
6	37048	20.230033151663	47
6	37077	20.230034350863	47
6	37106	20.230035550063	47
6	37135	20.230036749263	47
6	37164	20.230037948463	47
6	37193	20.230039147663	47
6	37222	20.230040346863	47
6	37251	20.230041546063	47
6	37280	20.230042745263	47
6	37309	20.230043944463	47
6	37338	20.230045143663	47
6	37367	20.230046342863	47
6	37396	20.230047542063	47
6	37425	20.230048741263	47
6	37454	20.230049940463	47
6	37483	20.230051139663	47
6	37512	20.230052338863	47
6	37541	20.230053538063	47
6	37570	20.230054737263	47
6	37599	20.230055936463	47
6	37628	20.230057135663	47
6	37657	20.230058334863	47
6	37686	20.230059534063	47
6	37713	20.230060733263	47
6	37740	20.230061932463	47
6	37767	20.230063131663	47
6	37794	20.230064330863	47
6	37821	20.230065530063	47
6	37848	20.230066729263	47
6	37875	20.230067928463	47
6	37902	20.230069127663	47
6	37929	20.230070326863	47
6	37956	20.230071526063	47
6	37983	20.230072725263	47
6	38010	20.230073924463	47
6	38037	20.230075123663	47
6	38064	20.230076322863	47
6	38091	20.230077522063	47
6	38118	20.230078721263	47
6	38145	20.230079920463	47
6	38172	20.230081119663	47
6	38199	20.230082318863	47
6	38226	20.230083518063	47
6	38253	20.230084717263	47
6	38280	20.230085916463	47
6	38307	20.230087115663	47
6	38334	20.230088314863	47
6	38361	20.230089514063	47
6	38388	20.230090713263	47
6	38415	20.230091912463	47
6	38442	20.230093111663	47
6	38469	20.230094310863	47
6	38496	20.230095510063	47
6	38523	20.230096709263	47
6	38550	20.230097908463	47
6	38577	20.230099107663	47
6	38604	20.230100306863	47
6	38631	20.230101506063	47
6	38658	20.230102705263	47
6	38685	20.230103904463	47
6	38712	20.230105103663	47
6	38739	20.230106302863	47
6	38766	20.230107502063	47
6	38793	20.230108701263	47
6	38820	20.230109900463	47
6	38843	20.230111099663	47
6	38862	20.230112298863	47
6	38891	20.230115313263	47
6	38912	25.229930962063	247
6	38957	25.229935790063	47
6	38996	25.229940100463	47
6	39019	25.229941299663	47
6	39062	25.229944410863	47
6	39093	25.229945610063	47
6	39124	25.229946809263	47
6	39155	25.229948008463	47
6	39186	25.229949207663	47
6	39217	25.229950406863	47
6	39248	25.229951606063	47
6	39279	25.229952805263	47
6	39310	25.229954004463	47
6	39341	25.229955203663	47
6	39372	25.229956402863	47
6	39403	25.229957602063	47
6	39434	25.229958801263	47
6	39465	25.229960000463	47
6	39496	25.229961199663	47
6	39527	25.229962398863	47
6	39558	25.229963598063	47
6	39589	25.229964797263	47
6	39620	25.229965996463	47
6	39651	25.229967195663	47
6	39682	25.229968394863	47
6	39713	25.229969594063	47
6	39744	25.229970793263	47
6	39775	25.229971992463	47
6	39806	25.229973191663	47
6	39837	25.229974390863	47
6	39868	25.229975590063	47
6	39899	25.229976789263	47
6	39930	25.229977988463	47
6	39961	25.229979187663	47
6	39992	25.229980386863	47
6	40023	25.229981586063	47
[...]
19	232561	265.230181246863	0.0001120896
19	232590	265.230182446063	0.0001132888
19	232619	265.230183645263	0.000114488
19	232648	265.230184844463	0.0001156872
19	232677	265.230186043663	0.0001168864
19	232706	265.230187242863	0.0001180856
19	232735	265.230188442063	0.0001192848
19	232764	265.230189641263	0.000120484
19	232793	265.230190840463	0.0001216832
19	232822	265.230192039663	0.0001228824
19	232851	265.230193238863	0.0001240816
19	232880	265.230194438063	0.0001252808
19	232909	265.230195637263	0.00012648
19	232938	265.230196836463	0.0001276792
19	232965	265.230198035663	0.0001288784
19	232992	265.230199234863	0.0001300776
19	233019	265.230200434063	0.0001312768
19	233046	265.230201633263	0.000132476
19	233073	265.230202832463	0.0001336752
19	233100	265.230204031663	0.0001348744
19	233127	265.230205230863	0.0001360736
19	233154	265.230206430063	0.0001372728
19	233181	265.230207629263	0.000138472
19	233208	265.230208828463	0.0001396712
19	233235	265.230210027663	0.0001408704
19	233262	265.230211226863	0.0001420696
19	233289	265.230212426063	0.0001432688
19	233316	265.230213625263	0.000144468
19	233343	265.230214824463	0.0001456672
19	233370	265.230216023663	0.0001468664
19	233397	265.230217222863	0.0001480656
19	233424	265.230218422063	0.0001492648
19	233451	265.230219621263	0.000150464
19	233478	265.230220820463	0.0001516632
19	233505	265.230222019663	0.0001528624
19	233532	265.230223218863	0.0001540616
19	233559	265.230224418063	0.0001552608
19	233586	265.230225617263	0.00015646
19	233613	265.230226816463	0.0001576592
19	233640	265.230228015663	0.0001588584
19	233667	265.230229214863	0.0001600576
19	233694	265.230230414063	0.0001612568
19	233721	265.230231613263	0.000162456
19	233748	265.230232812463	0.0001636552
19	233775	265.230234011663	0.0001648544
19	233802	265.230235210863	0.0001660536
19	233829	265.230236410063	0.0001672528
19	233856	265.230237609263	0.000168452
19	233883	265.230238808463	0.0001696512
19	233910	265.230240007663	0.0001708504
19	233937	265.230241206863	0.0001720496
19	233964	265.230242406063	0.0001732488
19	233991	265.230243605263	0.000174448
19	234018	265.230244804463	0.0001756472
19	234045	265.230246003663	0.0001768464
19	234072	265.230247202863	0.0001780456
19	234095	265.230248402063	0.0001792448
19	234114	265.230249601263	0.000180444
19	234143	265.230252615663	0.0001834584
19	234209	270.230073092463	3.9352e-06
19	234248	270.230077402863	8.2456e-06
19	234271	270.230078602063	9.4448e-06
19	234314	270.230081713263	1.2556e-05
19	234345	270.230082912463	1.37552e-05
19	234376	270.230084111663	1.49544e-05
19	234407	270.230085310863	1.61536e-05
19	234438	270.230086510063	1.73528e-05
19	234469	270.230087709263	1.8552e-05
19	234500	270.230088908463	1.97512e-05
19	234531	270.230090107663	2.09504e-05
19	234562	270.230091306863	2.21496e-05
19	234593	270.230092506063	2.33488e-05
19	234624	270.230093705263	2.4548e-05
19	234655	270.230094904463	2.57472e-05
19	234686	270.230096103663	2.69464e-05
19	234717	270.230097302863	2.81456e-05
19	234748	270.230098502063	2.93448e-05
19	234779	270.230099701263	3.0544e-05
19	234810	270.230100900463	3.17432e-05
19	234841	270.230102099663	3.29424e-05
19	234872	270.230103298863	3.41416e-05
19	234903	270.230104498063	3.53408e-05
19	234934	270.230105697263	3.654e-05
19	234965	270.230106896463	3.77392e-05
19	234996	270.230108095663	3.89384e-05
19	235027	270.230109294863	4.01376e-05
19	235058	270.230110494063	4.13368e-05
19	235089	270.230111693263	4.2536e-05
19	235120	270.230112892463	4.37352e-05
19	235151	270.230114091663	4.49344e-05
19	235182	270.230115290863	4.61336e-05
19	235213	270.230116490063	4.73328e-05
19	235244	270.230117689263	4.8532e-05
19	235275	270.230118888463	4.97312e-05
19	235306	270.230120087663	5.09304e-05
19	235337	270.230121286863	5.21296e-05
19	235368	270.230122486063	5.33288e-05
19	235399	270.230123685263	5.4528e-05
19	235430	270.230124884463	5.57272e-05
19	235461	270.230126083663	5.69264e-05
19	235492	270.230127282863	5.81256e-05
19	235523	270.230128482063	5.93248e-05
19	235554	270.230129681263	6.0524e-05
19	235585	270.230130880463	6.17232e-05
19	235614	270.230132079663	6.29224e-05
19	235643	270.230133278863	6.41216e-05
19	235672	270.230134478063	6.53208e-05
19	235701	270.230135677263	6.652e-05
19	235730	270.230136876463	6.77192e-05
19	235759	270.230138075663	6.89184e-05
19	235788	270.230139274863	7.01176e-05
19	235817	270.230140474063	7.13168e-05
19	235846	270.230141673263	7.2516e-05
19	235875	270.230142872463	7.37152e-05
19	235904	270.230144071663	7.49144e-05
19	235933	270.230145270863	7.61136e-05
19	235962	270.230146470063	7.73128e-05
19	235991	270.230147669263	7.8512e-05
19	236020	270.230148868463	7.97112e-05
19	236049	270.230150067663	8.09104e-05
19	236078	270.230151266863	8.21096e-05
19	236107	270.230152466063	8.33088e-05
19	236136	270.230153665263	8.4508e-05
19	236165	270.230154864463	8.57072e-05
19	236194	270.230156063663	8.69064e-05
19	236223	270.230157262863	8.81056e-05
19	236252	270.230158462063	8.93048e-05
19	236281	270.230159661263	9.0504e-05
19	236310	270.230160860463	9.17032e-05
19	236339	270.230162059663	9.29024e-05
19	236368	270.230163258863	9.41016e-05
19	236397	270.230164458063	9.53008e-05
19	236426	270.230165657263	9.65e-05
19	236455	270.230166856463	9.76992e-05
19	236484	270.230168055663	9.88984e-05
19	236513	270.230169254863	0.0001000976
19	236542	270.230170454063	0.0001012968
19	236571	270.230171653263	0.000102496
19	236600	270.230172852463	0.0001036952
19	236629	270.230174051663	0.0001048944
19	236658	270.230175250863	0.0001060936
19	236687	270.230176450063	0.0001072928
19	236716	270.230177649263	0.000108492
19	236745	270.230178848463	0.0001096912
19	236774	270.230180047663	0.0001108904
19	236803	270.230181246863	0.0001120896
19	236832	270.230182446063	0.0001132888
19	236861	270.230183645263	0.000114488
19	236890	270.230184844463	0.0001156872
19	236919	270.230186043663	0.0001168864
19	236948	270.230187242863	0.0001180856
19	236977	270.230188442063	0.0001192848
19	237006	270.230189641263	0.000120484
19	237035	270.230190840463	0.0001216832
19	237064	270.230192039663	0.0001228824
19	237093	270.230193238863	0.0001240816
19	237122	270.230194438063	0.0001252808
19	237151	270.230195637263	0.00012648
19	237180	270.230196836463	0.0001276792
19	237207	270.230198035663	0.0001288784
19	237234	270.230199234863	0.0001300776
19	237261	270.230200434063	0.0001312768
19	237288	270.230201633263	0.000132476
19	237315	270.230202832463	0.0001336752
19	237342	270.230204031663	0.0001348744
19	237369	270.230205230863	0.0001360736
19	237396	270.230206430063	0.0001372728
19	237423	270.230207629263	0.000138472
19	237450	270.230208828463	0.0001396712
19	237477	270.230210027663	0.0001408704
19	237504	270.230211226863	0.0001420696
19	237531	270.230212426063	0.0001432688
19	237558	270.230213625263	0.000144468
19	237585	270.230214824463	0.0001456672
19	237612	270.230216023663	0.0001468664
19	237639	270.230217222863	0.0001480656
19	237666	270.230218422063	0.0001492648
19	237693	270.230219621263	0.000150464
19	237720	270.230220820463	0.0001516632
19	237747	270.230222019663	0.0001528624
19	237774	270.230223218863	0.0001540616
19	237801	270.230224418063	0.0001552608
19	237828	270.230225617263	0.00015646
19	237855	270.230226816463	0.0001576592
19	237882	270.230228015663	0.0001588584
19	237909	270.230229214863	0.0001600576
19	237936	270.230230414063	0.0001612568
19	237963	270.230231613263	0.000162456
19	237990	270.230232812463	0.0001636552
19	238017	270.230234011663	0.0001648544
19	238044	270.230235210863	0.0001660536
19	238071	270.230236410063	0.0001672528
19	238098	270.230237609263	0.000168452
19	238125	270.230238808463	0.0001696512
19	238152	270.230240007663	0.0001708504
19	238179	270.230241206863	0.0001720496
19	238206	270.230242406063	0.0001732488
19	238233	270.230243605263	0.000174448
19	238260	270.230244804463	0.0001756472
19	238287	270.230246003663	0.0001768464
19	238314	270.230247202863	0.0001780456
19	238337	270.230248402063	0.0001792448
19	238356	270.230249601263	0.000180444
19	238385	270.230252615663	0.0001834584
19	238451	275.230073092463	3.9352e-06
19	238490	275.230077402863	8.2456e-06
19	238513	275.230078602063	9.4448e-06
19	238556	275.230081713263	1.2556e-05
19	238587	275.230082912463	1.37552e-05
19	238618	275.230084111663	1.49544e-05
19	238649	275.230085310863	1.61536e-05
19	238680	275.230086510063	1.73528e-05
19	238711	275.230087709263	1.8552e-05
19	238742	275.230088908463	1.97512e-05
19	238773	275.230090107663	2.09504e-05
19	238804	275.230091306863	2.21496e-05
19	238835	275.230092506063	2.33488e-05
19	238866	275.230093705263	2.4548e-05
19	238897	275.230094904463	2.57472e-05
19	238928	275.230096103663	2.69464e-05
19	238959	275.230097302863	2.81456e-05
19	238990	275.230098502063	2.93448e-05
19	239021	275.230099701263	3.0544e-05
19	239052	275.230100900463	3.17432e-05
19	239083	275.230102099663	3.29424e-05
19	239114	275.230103298863	3.41416e-05
19	239145	275.230104498063	3.53408e-05
19	239176	275.230105697263	3.654e-05
19	239207	275.230106896463	3.77392e-05
19	239238	275.230108095663	3.89384e-05
19	239269	275.230109294863	4.01376e-05
19	239300	275.230110494063	4.13368e-05
19	239331	275.230111693263	4.2536e-05
19	239362	275.230112892463	4.37352e-05
19	239393	275.230114091663	4.49344e-05
19	239424	275.230115290863	4.61336e-05
19	239455	275.230116490063	4.73328e-05
19	239486	275.230117689263	4.8532e-05
19	239517	275.230118888463	4.97312e-05
19	239548	275.230120087663	5.09304e-05
19	239579	275.230121286863	5.21296e-05
19	239610	275.230122486063	5.33288e-05
19	239641	275.230123685263	5.4528e-05
19	239672	275.230124884463	5.57272e-05
19	239703	275.230126083663	5.69264e-05
19	239734	275.230127282863	5.81256e-05
19	239765	275.230128482063	5.93248e-05
19	239796	275.230129681263	6.0524e-05
19	239827	275.230130880463	6.17232e-05
19	239856	275.230132079663	6.29224e-05
19	239885	275.230133278863	6.41216e-05
19	239914	275.230134478063	6.53208e-05
19	239943	275.230135677263	6.652e-05
19	239972	275.230136876463	6.77192e-05
19	240001	275.230138075663	6.89184e-05
19	240030	275.230139274863	7.01176e-05
19	240059	275.230140474063	7.13168e-05
19	240088	275.230141673263	7.2516e-05
19	240117	275.230142872463	7.37152e-05
19	240146	275.230144071663	7.49144e-05
19	240175	275.230145270863	7.61136e-05
19	240204	275.230146470063	7.73128e-05
19	240233	275.230147669263	7.8512e-05
19	240262	275.230148868463	7.97112e-05
19	240291	275.230150067663	8.09104e-05
19	240320	275.230151266863	8.21096e-05
19	240349	275.230152466063	8.33088e-05
19	240378	275.230153665263	8.4508e-05
19	240407	275.230154864463	8.57072e-05
19	240436	275.230156063663	8.69064e-05
19	240465	275.230157262863	8.81056e-05
19	240494	275.230158462063	8.93048e-05
19	240523	275.230159661263	9.0504e-05
19	240552	275.230160860463	9.17032e-05
19	240581	275.230162059663	9.29024e-05
19	240610	275.230163258863	9.41016e-05
19	240639	275.230164458063	9.53008e-05
19	240668	275.230165657263	9.65e-05
19	240697	275.230166856463	9.76992e-05
19	240726	275.230168055663	9.88984e-05
19	240755	275.230169254863	0.0001000976
19	240784	275.230170454063	0.0001012968
19	240813	275.230171653263	0.000102496
19	240842	275.230172852463	0.0001036952
19	240871	275.230174051663	0.0001048944
19	240900	275.230175250863	0.0001060936
19	240929	275.230176450063	0.0001072928
19	240958	275.230177649263	0.000108492
19	240987	275.230178848463	0.0001096912
19	241016	275.230180047663	0.0001108904
19	241045	275.230181246863	0.0001120896
19	241074	275.230182446063	0.0001132888
19	241103	275.230183645263	0.000114488
19	241132	275.230184844463	0.0001156872
19	241161	275.230186043663	0.0001168864
19	241190	275.230187242863	0.0001180856
19	241219	275.230188442063	0.0001192848
19	241248	275.230189641263	0.000120484
19	241277	275.230190840463	0.0001216832
19	241306	275.230192039663	0.0001228824
19	241335	275.230193238863	0.0001240816
19	241364	275.230194438063	0.0001252808
19	241393	275.230195637263	0.00012648
19	241422	275.230196836463	0.0001276792
19	241449	275.230198035663	0.0001288784
19	241476	275.230199234863	0.0001300776
19	241503	275.230200434063	0.0001312768
19	241530	275.230201633263	0.000132476
19	241557	275.230202832463	0.0001336752
19	241584	275.230204031663	0.0001348744
19	241611	275.230205230863	0.0001360736
19	241638	275.230206430063	0.0001372728
19	241665	275.230207629263	0.000138472
19	241692	275.230208828463	0.0001396712
19	241719	275.230210027663	0.0001408704
19	241746	275.230211226863	0.0001420696
19	241773	275.230212426063	0.0001432688
19	241800	275.230213625263	0.000144468
19	241827	275.230214824463	0.0001456672
19	241854	275.230216023663	0.0001468664
19	241881	275.230217222863	0.0001480656
19	241908	275.230218422063	0.0001492648
19	241935	275.230219621263	0.000150464
19	241962	275.230220820463	0.0001516632
19	241989	275.230222019663	0.0001528624
19	242016	275.230223218863	0.0001540616
19	242043	275.230224418063	0.0001552608
19	242070	275.230225617263	0.00015646
19	242097	275.230226816463	0.0001576592
19	242124	275.230228015663	0.0001588584
19	242151	275.230229214863	0.0001600576
19	242178	275.230230414063	0.0001612568
19	242205	275.230231613263	0.000162456
19	242232	275.230232812463	0.0001636552
19	242259	275.230234011663	0.0001648544
19	242286	275.230235210863	0.0001660536
19	242313	275.230236410063	0.0001672528
19	242340	275.230237609263	0.000168452
19	242367	275.230238808463	0.0001696512
19	242394	275.230240007663	0.0001708504
19	242421	275.230241206863	0.0001720496
19	242448	275.230242406063	0.0001732488
19	242475	275.230243605263	0.000174448
19	242502	275.230244804463	0.0001756472
19	242529	275.230246003663	0.0001768464
19	242556	275.230247202863	0.0001780456
19	242579	275.230248402063	0.0001792448
19	242598	275.230249601263	0.000180444
19	242627	275.230252615663	0.0001834584
21	2067	0.229868178863	100000
21	3520	0.229930962063	70000
21	4973	0.229993745263	70000
21	9210	0.230173110863	210000
21	13447	0.230352476463	210000
21	17684	0.230531842063	210000
21	21921	0.230711207663	210000
21	26163	5.230115313263	210000
21	30405	10.230115313263	210000
21	34647	15.230115313263	210000
21	38889	20.230115313263	210000
21	43131	25.230115313263	210000
21	47373	30.230115313263	210000
21	51615	35.230115313263	210000
21	55857	40.230115313263	210000
21	60099	45.230115313263	210000
21	64341	50.230115313263	210000
21	68583	55.230115313263	210000
21	72825	60.230115313263	210000
21	77067	65.230115313263	210000
21	81309	70.230115313263	210000
21	85551	75.230115313263	210000
21	89793	80.230115313263	210000
21	94035	85.230115313263	210000
21	98277	90.230115313263	210000
21	101678	95.230080795663	168000
21	103268	125.229999613263	70000
21	104721	125.230062396463	70000
21	108958	125.230241762063	210000
21	113195	125.230421127663	210000
21	117432	125.230600493263	210000
21	121669	125.230779858863	210000
21	125911	130.230183964463	210000
21	130153	135.230183964463	210000
21	134395	140.230183964463	210000
21	138637	145.230183964463	210000
21	142879	150.230183964463	210000
21	147121	155.230183964463	210000
21	151363	160.230183964463	210000
21	155605	165.230183964463	210000
21	159847	170.230183964463	210000
21	164089	175.230183964463	210000
21	168331	180.230183964463	210000
21	172573	185.230183964463	210000
21	176815	190.230183964463	210000
21	181057	195.230183964463	210000
21	185299	200.230183964463	210000
21	189541	205.230183964463	210000
21	193783	210.230183964463	210000
21	198025	215.230183964463	210000
21	201426	220.230149446863	168000
21	203016	250.230068264463	70000
21	204469	250.230131047663	70000
21	208706	250.230310413263	210000
21	212943	250.230489778863	210000
21	217180	250.230669144463	210000
21	221417	250.230848510063	210000
21	225659	255.230252615663	210000
21	229901	260.230252615663	210000
21	234143	265.230252615663	210000
21	238385	270.230252615663	210000
21	242627	275.230252615663	210000
22	101863	125.229933150063	1.3432e-06
22	103404	125.230000956463	1.3432e-06
22	104857	125.230063739663	1.3432e-06
22	109094	125.230243105263	1.3432e-06
22	113331	125.230422470863	1.3432e-06
22	117568	125.230601836463	1.3432e-06
22	121722	130.230000918863	1.3056e-06
22	125964	135.230000918863	1.3056e-06
22	130206	140.230000918863	1.3056e-06
22	134448	145.230000918863	1.3056e-06
22	138690	150.230000918863	1.3056e-06
22	142932	155.230000918863	1.3056e-06
22	147174	160.230000918863	1.3056e-06
22	151416	165.230000918863	1.3056e-06
22	155658	170.230000918863	1.3056e-06
22	159900	175.230000918863	1.3056e-06
22	164142	180.230000918863	1.3056e-06
22	168384	185.230000918863	1.3056e-06
22	172626	190.230000918863	1.3056e-06
22	176868	195.230000918863	1.3056e-06
22	181110	200.230000918863	1.3056e-06
22	185352	205.230000918863	1.3056e-06
22	189594	210.230000918863	1.3056e-06
22	193836	215.230000918863	1.3056e-06
22	198078	220.230000918863	1.3056e-06
24	201611	250.230001801263	1.3432e-06
24	203152	250.230069607663	1.3432e-06
24	204605	250.230132390863	1.3432e-06
24	208842	250.230311756463	1.3432e-06
24	213079	250.230491122063	1.3432e-06
24	217316	250.230670487663	1.3432e-06
24	221470	255.230069570063	1.3056e-06
24	225712	260.230069570063	1.3056e-06
24	229954	265.230069570063	1.3056e-06
24	234196	270.230069570063	1.3056e-06
24	238438	275.230069570063	1.3056e-06
25	201638	250.230005736463	4.348e-06
25	201677	250.230010046863	4.3104e-06
25	201743	250.230014357263	4.3104e-06
25	201867	250.230019154063	4.7968e-06
25	202115	250.230028747663	9.5936e-06
25	202581	250.230047934863	1.91872e-05
25	203038	250.230068677263	1.5552e-06
25	203191	250.230073542863	4.348e-06
25	204412	250.230127506863	5.3964e-05
25	204491	250.230131460463	1.5552e-06
25	204644	250.230136326063	4.348e-06
25	205949	250.230190290063	5.3964e-05
25	207254	250.230244254063	5.3964e-05
25	208487	250.230298218063	5.3964e-05
25	208728	250.230310826063	3.0144e-06
25	208881	250.230315691663	4.348e-06
25	210186	250.230369655663	5.3964e-05
25	211491	250.230423619663	5.3964e-05
25	212724	250.230477583663	5.3964e-05
25	212965	250.230490191663	3.0144e-06
25	213118	250.230495057263	4.348e-06
25	214423	250.230549021263	5.3964e-05
25	215728	250.230602985263	5.3964e-05
25	216961	250.230656949263	5.3964e-05
25	217202	250.230669557263	3.0144e-06
25	217355	250.230674422863	4.348e-06
25	218660	250.230728386863	5.3964e-05
25	219965	250.230782350863	5.3964e-05
25	221198	250.230836314863	5.3964e-05
25	221431	250.230848922863	3.0144e-06
25	221497	255.230073505263	4.348e-06
25	221536	255.230077815663	4.3104e-06
25	221602	255.230082126063	4.3104e-06
25	221726	255.230086922863	4.7968e-06
25	221974	255.230096516463	9.5936e-06
25	222470	255.230115703663	1.91872e-05
25	223424	255.230154078063	3.83744e-05
25	224711	255.230208042063	5.3964e-05
25	225673	255.230253028463	3.0144e-06
25	225739	260.230073505263	4.348e-06
25	225778	260.230077815663	4.3104e-06
25	225844	260.230082126063	4.3104e-06
25	225968	260.230086922863	4.7968e-06
25	226216	260.230096516463	9.5936e-06
25	226712	260.230115703663	1.91872e-05
25	227666	260.230154078063	3.83744e-05
25	228953	260.230208042063	5.3964e-05
25	229915	260.230253028463	3.0144e-06
25	229981	265.230073505263	4.348e-06
25	230020	265.230077815663	4.3104e-06
25	230086	265.230082126063	4.3104e-06
25	230210	265.230086922863	4.7968e-06
25	230458	265.230096516463	9.5936e-06
25	230954	265.230115703663	1.91872e-05
25	231908	265.230154078063	3.83744e-05
25	233195	265.230208042063	5.3964e-05
25	234157	265.230253028463	3.0144e-06
25	234223	270.230073505263	4.348e-06
25	234262	270.230077815663	4.3104e-06
25	234328	270.230082126063	4.3104e-06
25	234452	270.230086922863	4.7968e-06
25	234700	270.230096516463	9.5936e-06
25	235196	270.230115703663	1.91872e-05
25	236150	270.230154078063	3.83744e-05
25	237437	270.230208042063	5.3964e-05
25	238399	270.230253028463	3.0144e-06
25	238465	275.230073505263	4.348e-06
25	238504	275.230077815663	4.3104e-06
25	238570	275.230082126063	4.3104e-06
25	238694	275.230086922863	4.7968e-06
25	238942	275.230096516463	9.5936e-06
25	239438	275.230115703663	1.91872e-05
25	240392	275.230154078063	3.83744e-05
25	241679	275.230208042063	5.3964e-05
25	242641	275.230253028463	3.0144e-06

